BCD
     RDKit          3D

177184  0  0  1  0  0  0  0  0999 V2000
  -11.4980  -15.5960   -2.6250 C   0  0  2  0  0  0  0  0  0  0  0  0
  -12.1230  -14.6860   -3.6410 C   0  0  1  0  0  0  0  0  0  0  0  0
  -12.9980  -13.6590   -2.9340 C   0  0  2  0  0  0  0  0  0  0  0  0
  -13.9440  -14.3730   -1.9890 C   0  0  1  0  0  0  0  0  0  0  0  0
  -13.1590  -15.2510   -1.0480 C   0  0  1  0  0  0  0  0  0  0  0  0
  -14.1140  -16.0620   -0.1400 C   0  0  0  0  0  0  0  0  0  0  0  0
  -11.1030  -14.0740   -4.4010 O   0  0  0  0  0  0  0  0  0  0  0  0
  -13.7080  -12.9270   -3.9000 O   0  0  0  0  0  0  0  0  0  0  0  0
  -14.6440  -13.3620   -1.2400 O   0  0  0  0  0  0  0  0  0  0  0  0
  -12.3930  -16.1900   -1.7630 O   0  0  0  0  0  0  0  0  0  0  0  0
  -14.9290  -16.9400   -0.9250 O   0  0  0  0  0  0  0  0  0  0  0  0
  -16.0420  -13.2060   -1.5780 C   0  0  2  0  0  0  0  0  0  0  0  0
  -16.3880  -11.7430   -1.7320 C   0  0  1  0  0  0  0  0  0  0  0  0
  -16.2530  -11.0240   -0.4040 C   0  0  2  0  0  0  0  0  0  0  0  0
  -16.9850  -11.7310    0.7120 C   0  0  1  0  0  0  0  0  0  0  0  0
  -16.6880  -13.2210    0.7270 C   0  0  1  0  0  0  0  0  0  0  0  0
  -17.6450  -14.0680    1.5680 C   0  0  0  0  0  0  0  0  0  0  0  0
  -15.5200  -11.1550   -2.7150 O   0  0  0  0  0  0  0  0  0  0  0  0
  -16.7500   -9.6950   -0.5540 O   0  0  0  0  0  0  0  0  0  0  0  0
  -16.5070  -11.0270    1.8970 O   0  0  0  0  0  0  0  0  0  0  0  0
  -16.8380  -13.7690   -0.5870 O   0  0  0  0  0  0  0  0  0  0  0  0
  -17.5700  -15.4300    1.2100 O   0  0  0  0  0  0  0  0  0  0  0  0
  -17.1580  -11.3460    3.1410 C   0  0  2  0  0  0  0  0  0  0  0  0
  -17.1720  -10.1150    4.0200 C   0  0  1  0  0  0  0  0  0  0  0  0
  -15.7940   -9.7680    4.5480 C   0  0  2  0  0  0  0  0  0  0  0  0
  -15.1540  -11.0210    5.1480 C   0  0  1  0  0  0  0  0  0  0  0  0
  -15.1640  -12.1480    4.1390 C   0  0  1  0  0  0  0  0  0  0  0  0
  -14.5900  -13.4550    4.6950 C   0  0  0  0  0  0  0  0  0  0  0  0
  -17.8050   -9.0000    3.3870 O   0  0  0  0  0  0  0  0  0  0  0  0
  -15.9350   -8.7490    5.5210 O   0  0  0  0  0  0  0  0  0  0  0  0
  -13.8090  -10.6820    5.5400 O   0  0  0  0  0  0  0  0  0  0  0  0
  -16.5170  -12.4090    3.7810 O   0  0  0  0  0  0  0  0  0  0  0  0
  -14.5090  -14.4030    3.6410 O   0  0  0  0  0  0  0  0  0  0  0  0
  -13.5100  -10.8570    6.9020 C   0  0  2  0  0  0  0  0  0  0  0  0
  -12.8030   -9.6140    7.4330 C   0  0  1  0  0  0  0  0  0  0  0  0
  -11.3910   -9.5040    6.8750 C   0  0  2  0  0  0  0  0  0  0  0  0
  -10.6290  -10.7900    7.0220 C   0  0  1  0  0  0  0  0  0  0  0  0
  -11.3990  -11.9740    6.4860 C   0  0  1  0  0  0  0  0  0  0  0  0
  -10.7200  -13.2980    6.8370 C   0  0  0  0  0  0  0  0  0  0  0  0
  -13.5830   -8.4870    7.0930 O   0  0  0  0  0  0  0  0  0  0  0  0
  -10.7280   -8.4360    7.5550 O   0  0  0  0  0  0  0  0  0  0  0  0
   -9.3840  -10.6580    6.2540 O   0  0  0  0  0  0  0  0  0  0  0  0
  -12.6930  -12.0280    7.1040 O   0  0  0  0  0  0  0  0  0  0  0  0
  -11.3410  -14.4180    6.2250 O   0  0  0  0  0  0  0  0  0  0  0  0
   -8.2150  -10.5020    6.9960 C   0  0  2  0  0  0  0  0  0  0  0  0
   -7.3860   -9.3700    6.3840 C   0  0  1  0  0  0  0  0  0  0  0  0
   -6.9300   -9.7290    4.9860 C   0  0  2  0  0  0  0  0  0  0  0  0
   -6.2400  -11.0670    4.9650 C   0  0  1  0  0  0  0  0  0  0  0  0
   -7.0680  -12.1220    5.6730 C   0  0  1  0  0  0  0  0  0  0  0  0
   -6.2620  -13.4220    5.8760 C   0  0  0  0  0  0  0  0  0  0  0  0
   -8.1810   -8.1890    6.4000 O   0  0  0  0  0  0  0  0  0  0  0  0
   -6.0840   -8.7070    4.4130 O   0  0  0  0  0  0  0  0  0  0  0  0
   -6.1080  -11.4320    3.5560 O   0  0  0  0  0  0  0  0  0  0  0  0
   -7.4490  -11.7000    6.9760 O   0  0  0  0  0  0  0  0  0  0  0  0
   -7.0700  -14.4990    6.2480 O   0  0  0  0  0  0  0  0  0  0  0  0
   -4.8230  -11.7880    3.0610 C   0  0  2  0  0  0  0  0  0  0  0  0
   -4.7090  -11.1960    1.6860 C   0  0  1  0  0  0  0  0  0  0  0  0
   -5.6880  -11.8020    0.7060 C   0  0  2  0  0  0  0  0  0  0  0  0
   -5.5820  -13.3200    0.7460 C   0  0  1  0  0  0  0  0  0  0  0  0
   -5.6700  -13.8330    2.1950 C   0  0  1  0  0  0  0  0  0  0  0  0
   -5.4700  -15.3310    2.3470 C   0  0  0  0  0  0  0  0  0  0  0  0
   -4.8630   -9.7770    1.7420 O   0  0  0  0  0  0  0  0  0  0  0  0
   -5.4000  -11.2750   -0.6050 O   0  0  0  0  0  0  0  0  0  0  0  0
   -6.6430  -13.7800   -0.0940 O   0  0  0  0  0  0  0  0  0  0  0  0
   -4.6730  -13.1940    3.0010 O   0  0  0  0  0  0  0  0  0  0  0  0
   -4.1450  -15.7400    1.9100 O   0  0  0  0  0  0  0  0  0  0  0  0
   -6.4440  -15.0440   -0.7080 C   0  0  2  0  0  0  0  0  0  0  0  0
   -6.7060  -14.8580   -2.1980 C   0  0  1  0  0  0  0  0  0  0  0  0
   -8.1450  -14.4260   -2.4150 C   0  0  2  0  0  0  0  0  0  0  0  0
   -9.0840  -15.3630   -1.7060 C   0  0  1  0  0  0  0  0  0  0  0  0
   -8.7070  -15.5700   -0.2660 C   0  0  1  0  0  0  0  0  0  0  0  0
   -9.6200  -16.6210    0.4010 C   0  0  0  0  0  0  0  0  0  0  0  0
   -5.8210  -13.9180   -2.7530 O   0  0  0  0  0  0  0  0  0  0  0  0
   -8.4130  -14.3810   -3.8120 O   0  0  0  0  0  0  0  0  0  0  0  0
  -10.4460  -14.9010   -1.8780 O   0  0  0  0  0  0  0  0  0  0  0  0
   -7.3510  -15.9800   -0.1580 O   0  0  0  0  0  0  0  0  0  0  0  0
   -9.4330  -17.8700   -0.2190 O   0  0  0  0  0  0  0  0  0  0  0  0
  -11.0020  -16.3960   -3.1940 H   0  0  0  0  0  0  0  0  0  0  0  0
  -12.7650  -15.2880   -4.3000 H   0  0  0  0  0  0  0  0  0  0  0  0
  -12.3510  -12.9900   -2.3480 H   0  0  0  0  0  0  0  0  0  0  0  0
  -14.6500  -14.9870   -2.5680 H   0  0  0  0  0  0  0  0  0  0  0  0
  -12.5150  -14.6230   -0.4150 H   0  0  0  0  0  0  0  0  0  0  0  0
  -13.5200  -16.6570    0.5690 H   0  0  0  0  0  0  0  0  0  0  0  0
  -14.7610  -15.3680    0.4160 H   0  0  0  0  0  0  0  0  0  0  0  0
  -10.5790  -14.7430   -4.8260 H   0  0  0  0  0  0  0  0  0  0  0  0
  -14.2570  -12.2830   -3.4690 H   0  0  0  0  0  0  0  0  0  0  0  0
  -16.2350  -13.7060   -2.5390 H   0  0  0  0  0  0  0  0  0  0  0  0
  -17.4330  -11.6630   -2.0680 H   0  0  0  0  0  0  0  0  0  0  0  0
  -15.1850  -10.9850   -0.1430 H   0  0  0  0  0  0  0  0  0  0  0  0
  -18.0680  -11.5780    0.5930 H   0  0  0  0  0  0  0  0  0  0  0  0
  -15.6610  -13.3780    1.0900 H   0  0  0  0  0  0  0  0  0  0  0  0
  -17.3800  -13.9610    2.6300 H   0  0  0  0  0  0  0  0  0  0  0  0
  -18.6740  -13.7120    1.4090 H   0  0  0  0  0  0  0  0  0  0  0  0
  -15.7330  -10.2350   -2.8160 H   0  0  0  0  0  0  0  0  0  0  0  0
  -16.6710   -9.2320    0.2720 H   0  0  0  0  0  0  0  0  0  0  0  0
  -18.2020  -11.6220    2.9330 H   0  0  0  0  0  0  0  0  0  0  0  0
  -17.7790  -10.3750    4.9000 H   0  0  0  0  0  0  0  0  0  0  0  0
  -15.1700   -9.4160    3.7130 H   0  0  0  0  0  0  0  0  0  0  0  0
  -15.7360  -11.3270    6.0300 H   0  0  0  0  0  0  0  0  0  0  0  0
  -14.5820  -11.8490    3.2550 H   0  0  0  0  0  0  0  0  0  0  0  0
  -13.5860  -13.2730    5.1070 H   0  0  0  0  0  0  0  0  0  0  0  0
  -15.2470  -13.8400    5.4890 H   0  0  0  0  0  0  0  0  0  0  0  0
  -17.7910   -8.2520    3.9730 H   0  0  0  0  0  0  0  0  0  0  0  0
  -15.0800   -8.5180    5.8640 H   0  0  0  0  0  0  0  0  0  0  0  0
  -14.4460  -10.9770    7.4670 H   0  0  0  0  0  0  0  0  0  0  0  0
  -12.7340   -9.7000    8.5280 H   0  0  0  0  0  0  0  0  0  0  0  0
  -11.4640   -9.2640    5.8040 H   0  0  0  0  0  0  0  0  0  0  0  0
  -10.3970  -10.9580    8.0840 H   0  0  0  0  0  0  0  0  0  0  0  0
  -11.4930  -11.8900    5.3930 H   0  0  0  0  0  0  0  0  0  0  0  0
   -9.6720  -13.2530    6.5050 H   0  0  0  0  0  0  0  0  0  0  0  0
  -10.7540  -13.4310    7.9280 H   0  0  0  0  0  0  0  0  0  0  0  0
  -14.4560   -8.5850    7.4540 H   0  0  0  0  0  0  0  0  0  0  0  0
  -11.2270   -7.6340    7.4490 H   0  0  0  0  0  0  0  0  0  0  0  0
  -10.8820  -15.2110    6.4750 H   0  0  0  0  0  0  0  0  0  0  0  0
   -8.4570  -10.2320    8.0350 H   0  0  0  0  0  0  0  0  0  0  0  0
   -6.4950   -9.2220    7.0110 H   0  0  0  0  0  0  0  0  0  0  0  0
   -7.8310   -9.8160    4.3610 H   0  0  0  0  0  0  0  0  0  0  0  0
   -5.2510  -10.9880    5.4390 H   0  0  0  0  0  0  0  0  0  0  0  0
   -7.9580  -12.3480    5.0670 H   0  0  0  0  0  0  0  0  0  0  0  0
   -5.7520  -13.6720    4.9340 H   0  0  0  0  0  0  0  0  0  0  0  0
   -5.5130  -13.2540    6.6640 H   0  0  0  0  0  0  0  0  0  0  0  0
   -8.4470   -7.9980    7.2920 H   0  0  0  0  0  0  0  0  0  0  0  0
   -6.5360   -7.8720    4.4350 H   0  0  0  0  0  0  0  0  0  0  0  0
   -6.5330  -15.2740    6.3610 H   0  0  0  0  0  0  0  0  0  0  0  0
   -4.0410  -11.3530    3.7010 H   0  0  0  0  0  0  0  0  0  0  0  0
   -3.6970  -11.4190    1.3160 H   0  0  0  0  0  0  0  0  0  0  0  0
   -6.7070  -11.5150    1.0030 H   0  0  0  0  0  0  0  0  0  0  0  0
   -4.6100  -13.6190    0.3260 H   0  0  0  0  0  0  0  0  0  0  0  0
   -6.6680  -13.5800    2.5830 H   0  0  0  0  0  0  0  0  0  0  0  0
   -5.5970  -15.6030    3.4050 H   0  0  0  0  0  0  0  0  0  0  0  0
   -6.2240  -15.8550    1.7410 H   0  0  0  0  0  0  0  0  0  0  0  0
   -4.2410   -9.4150    2.3620 H   0  0  0  0  0  0  0  0  0  0  0  0
   -5.4760  -10.3280   -0.5900 H   0  0  0  0  0  0  0  0  0  0  0  0
   -4.0520  -16.6790    2.0170 H   0  0  0  0  0  0  0  0  0  0  0  0
   -5.4070  -15.3820   -0.5660 H   0  0  0  0  0  0  0  0  0  0  0  0
   -6.5650  -15.8310   -2.6910 H   0  0  0  0  0  0  0  0  0  0  0  0
   -8.2700  -13.4210   -1.9860 H   0  0  0  0  0  0  0  0  0  0  0  0
   -8.9980  -16.3400   -2.2040 H   0  0  0  0  0  0  0  0  0  0  0  0
   -8.8440  -14.6180    0.2680 H   0  0  0  0  0  0  0  0  0  0  0  0
   -9.3670  -16.7010    1.4690 H   0  0  0  0  0  0  0  0  0  0  0  0
  -10.6710  -16.3130    0.2950 H   0  0  0  0  0  0  0  0  0  0  0  0
   -4.9260  -14.2020   -2.6090 H   0  0  0  0  0  0  0  0  0  0  0  0
   -9.3130  -14.1110   -3.9540 H   0  0  0  0  0  0  0  0  0  0  0  0
   -9.9950  -18.5160    0.1920 H   0  0  0  0  0  0  0  0  0  0  0  0
  -15.7959  -17.6724   -0.0715 C   0  0  0  0  0  0  0  0  0  0  0  0
  -16.7300  -18.4615    0.8481 C   0  0  0  0  0  0  0  0  0  0  0  0
  -17.5948  -17.4379    0.8481 F   0  0  0  0  0  0  0  0  0  0  0  0
  -15.8652  -19.4852    0.8481 F   0  0  0  0  0  0  0  0  0  0  0  0
  -17.6641  -19.2507    1.7677 C   0  0  0  0  0  0  0  0  0  0  0  0
  -18.5289  -18.2271    1.7677 F   0  0  0  0  0  0  0  0  0  0  0  0
  -16.7993  -20.2743    1.7677 F   0  0  0  0  0  0  0  0  0  0  0  0
  -18.5982  -20.0398    2.6872 C   0  0  0  0  0  0  0  0  0  0  0  0
  -19.4630  -19.0162    2.6872 F   0  0  0  0  0  0  0  0  0  0  0  0
  -17.7334  -21.0634    2.6872 F   0  0  0  0  0  0  0  0  0  0  0  0
  -17.9776  -21.2697    2.9277 F   0  0  0  0  0  0  0  0  0  0  0  0
  -18.4711  -16.1802    2.0110 C   0  0  0  0  0  0  0  0  0  0  0  0
  -19.4420  -16.9885    2.8740 C   0  0  0  0  0  0  0  0  0  0  0  0
  -20.2994  -15.9587    2.8740 F   0  0  0  0  0  0  0  0  0  0  0  0
  -18.5847  -18.0183    2.8740 F   0  0  0  0  0  0  0  0  0  0  0  0
  -20.4130  -17.7968    3.7371 C   0  0  0  0  0  0  0  0  0  0  0  0
  -21.2703  -16.7670    3.7371 F   0  0  0  0  0  0  0  0  0  0  0  0
  -19.5556  -18.8266    3.7371 F   0  0  0  0  0  0  0  0  0  0  0  0
  -21.3839  -18.6051    4.6001 C   0  0  0  0  0  0  0  0  0  0  0  0
  -22.2412  -17.5753    4.6001 F   0  0  0  0  0  0  0  0  0  0  0  0
  -20.5266  -19.6349    4.6001 F   0  0  0  0  0  0  0  0  0  0  0  0
  -20.7804  -19.8462    4.8258 F   0  0  0  0  0  0  0  0  0  0  0  0
  -13.9786  -15.6221    4.1400 C   0  0  0  0  0  0  0  0  0  0  0  0
  -13.4072  -16.9356    4.6776 C   0  0  0  0  0  0  0  0  0  0  0  0
  -14.6360  -17.4701    4.6776 F   0  0  0  0  0  0  0  0  0  0  0  0
  -12.1784  -16.4010    4.6776 F   0  0  0  0  0  0  0  0  0  0  0  0
  -12.8358  -18.2491    5.2153 C   0  0  0  0  0  0  0  0  0  0  0  0
  -14.0645  -18.7837    5.2153 F   0  0  0  0  0  0  0  0  0  0  0  0
  -11.6070  -17.7145    5.2153 F   0  0  0  0  0  0  0  0  0  0  0  0
  -12.2643  -19.5626    5.7529 C   0  0  0  0  0  0  0  0  0  0  0  0
  -13.4931  -20.0972    5.7529 F   0  0  0  0  0  0  0  0  0  0  0  0
  -11.0356  -19.0280    5.7529 F   0  0  0  0  0  0  0  0  0  0  0  0
  -10.8862  -19.3714    5.8935 F   0  0  0  0  0  0  0  0  0  0  0  0
  1 75  1  0
  1 10  1  0
  1 78  1  6
  2  3  1  0
  2  1  1  0
  2 79  1  6
  3  4  1  0
  3 80  1  1
  4  9  1  0
  4  5  1  0
  4 81  1  6
  5  6  1  0
  5 82  1  1
  6 83  1  0
  6 84  1  0
  7  2  1  0
  7 85  1  0
  8  3  1  0
  8 86  1  0
 10  5  1  0
 11  6  1  0
 12  9  1  0
 12 21  1  0
 12 87  1  6
 13 12  1  0
 13 14  1  0
 13 88  1  6
 14 15  1  0
 14 89  1  1
 15 16  1  0
 15 20  1  0
 15 90  1  6
 16 17  1  0
 16 91  1  1
 17 92  1  0
 17 93  1  0
 18 13  1  0
 18 94  1  0
 19 14  1  0
 19 95  1  0
 20 23  1  0
 21 16  1  0
 22 17  1  0
 23 32  1  0
 23 24  1  0
 23 96  1  6
 24 25  1  0
 24 97  1  1
 25 26  1  0
 25 30  1  0
 25 98  1  6
 26 31  1  0
 26 99  1  1
 27 28  1  0
 27 26  1  0
 27100  1  6
 28102  1  0
 28101  1  0
 29 24  1  0
 29103  1  0
 30104  1  0
 31 34  1  0
 32 27  1  0
 33 28  1  0
 34 43  1  0
 34 35  1  0
 34105  1  1
 35106  1  1
 36 37  1  0
 36 35  1  0
 36 41  1  0
 36107  1  6
 37108  1  1
 38 39  1  0
 38 37  1  0
 38 43  1  0
 38109  1  6
 39111  1  0
 39110  1  0
 40 35  1  0
 40112  1  0
 41113  1  0
 42 45  1  0
 42 37  1  0
 44 39  1  0
 44114  1  0
 45115  1  1
 46 51  1  0
 46 45  1  0
 46116  1  1
 47 46  1  0
 47117  1  6
 48 47  1  0
 48 49  1  0
 48118  1  1
 49 50  1  0
 49 54  1  0
 49119  1  6
 50 55  1  0
 50120  1  0
 50121  1  0
 51122  1  0
 52 47  1  0
 52123  1  0
 53 48  1  0
 54 45  1  0
 55124  1  0
 56 53  1  0
 56125  1  1
 57 62  1  0
 57 56  1  0
 57126  1  6
 58 59  1  0
 58 57  1  0
 58127  1  1
 59 60  1  0
 59128  1  6
 60 61  1  0
 60 65  1  0
 60129  1  1
 61131  1  0
 61130  1  0
 62132  1  0
 63 58  1  0
 63133  1  0
 64 59  1  0
 65 56  1  0
 66 61  1  0
 66134  1  0
 67 76  1  0
 67 64  1  0
 67135  1  6
 68 67  1  0
 68136  1  6
 69 68  1  0
 69 70  1  0
 69137  1  1
 70 71  1  0
 70138  1  6
 71 76  1  0
 71 72  1  0
 71139  1  1
 72140  1  0
 72141  1  0
 73 68  1  0
 73142  1  0
 74 69  1  0
 74143  1  0
 75 70  1  0
 77 72  1  0
 77144  1  0
 11145  1  0
145146  1  0
146147  1  0
146148  1  0
146149  1  0
149150  1  0
149151  1  0
149152  1  0
152153  1  0
152154  1  0
152155  1  0
 22156  1  0
156157  1  0
157158  1  0
157159  1  0
157160  1  0
160161  1  0
160162  1  0
160163  1  0
163164  1  0
163165  1  0
163166  1  0
 33167  1  0
167168  1  0
168169  1  0
168170  1  0
168171  1  0
171172  1  0
171173  1  0
171174  1  0
174175  1  0
174176  1  0
174177  1  0
M  END
