BCD
     RDKit          3D

149156  0  0  1  0  0  0  0  0999 V2000
  -11.4980  -15.5960   -2.6250 C   0  0  2  0  0  0  0  0  0  0  0  0
  -12.1230  -14.6860   -3.6410 C   0  0  1  0  0  0  0  0  0  0  0  0
  -12.9980  -13.6590   -2.9340 C   0  0  2  0  0  0  0  0  0  0  0  0
  -13.9440  -14.3730   -1.9890 C   0  0  1  0  0  0  0  0  0  0  0  0
  -13.1590  -15.2510   -1.0480 C   0  0  1  0  0  0  0  0  0  0  0  0
  -14.1140  -16.0620   -0.1400 C   0  0  0  0  0  0  0  0  0  0  0  0
  -11.1030  -14.0740   -4.4010 O   0  0  0  0  0  0  0  0  0  0  0  0
  -13.7080  -12.9270   -3.9000 O   0  0  0  0  0  0  0  0  0  0  0  0
  -14.6440  -13.3620   -1.2400 O   0  0  0  0  0  0  0  0  0  0  0  0
  -12.3930  -16.1900   -1.7630 O   0  0  0  0  0  0  0  0  0  0  0  0
  -16.0420  -13.2060   -1.5780 C   0  0  2  0  0  0  0  0  0  0  0  0
  -16.3880  -11.7430   -1.7320 C   0  0  1  0  0  0  0  0  0  0  0  0
  -16.2530  -11.0240   -0.4040 C   0  0  2  0  0  0  0  0  0  0  0  0
  -16.9850  -11.7310    0.7120 C   0  0  1  0  0  0  0  0  0  0  0  0
  -16.6880  -13.2210    0.7270 C   0  0  1  0  0  0  0  0  0  0  0  0
  -17.6450  -14.0680    1.5680 C   0  0  0  0  0  0  0  0  0  0  0  0
  -15.5200  -11.1550   -2.7150 O   0  0  0  0  0  0  0  0  0  0  0  0
  -16.7500   -9.6950   -0.5540 O   0  0  0  0  0  0  0  0  0  0  0  0
  -16.5070  -11.0270    1.8970 O   0  0  0  0  0  0  0  0  0  0  0  0
  -16.8380  -13.7690   -0.5870 O   0  0  0  0  0  0  0  0  0  0  0  0
  -17.5700  -15.4300    1.2100 O   0  0  0  0  0  0  0  0  0  0  0  0
  -17.1580  -11.3460    3.1410 C   0  0  2  0  0  0  0  0  0  0  0  0
  -17.1720  -10.1150    4.0200 C   0  0  1  0  0  0  0  0  0  0  0  0
  -15.7940   -9.7680    4.5480 C   0  0  2  0  0  0  0  0  0  0  0  0
  -15.1540  -11.0210    5.1480 C   0  0  1  0  0  0  0  0  0  0  0  0
  -15.1640  -12.1480    4.1390 C   0  0  1  0  0  0  0  0  0  0  0  0
  -14.5900  -13.4550    4.6950 C   0  0  0  0  0  0  0  0  0  0  0  0
  -17.8050   -9.0000    3.3870 O   0  0  0  0  0  0  0  0  0  0  0  0
  -15.9350   -8.7490    5.5210 O   0  0  0  0  0  0  0  0  0  0  0  0
  -13.8090  -10.6820    5.5400 O   0  0  0  0  0  0  0  0  0  0  0  0
  -16.5170  -12.4090    3.7810 O   0  0  0  0  0  0  0  0  0  0  0  0
  -14.5090  -14.4030    3.6410 O   0  0  0  0  0  0  0  0  0  0  0  0
  -13.5100  -10.8570    6.9020 C   0  0  2  0  0  0  0  0  0  0  0  0
  -12.8030   -9.6140    7.4330 C   0  0  1  0  0  0  0  0  0  0  0  0
  -11.3910   -9.5040    6.8750 C   0  0  2  0  0  0  0  0  0  0  0  0
  -10.6290  -10.7900    7.0220 C   0  0  1  0  0  0  0  0  0  0  0  0
  -11.3990  -11.9740    6.4860 C   0  0  1  0  0  0  0  0  0  0  0  0
  -10.7200  -13.2980    6.8370 C   0  0  0  0  0  0  0  0  0  0  0  0
  -13.5830   -8.4870    7.0930 O   0  0  0  0  0  0  0  0  0  0  0  0
  -10.7280   -8.4360    7.5550 O   0  0  0  0  0  0  0  0  0  0  0  0
   -9.3840  -10.6580    6.2540 O   0  0  0  0  0  0  0  0  0  0  0  0
  -12.6930  -12.0280    7.1040 O   0  0  0  0  0  0  0  0  0  0  0  0
  -11.3410  -14.4180    6.2250 O   0  0  0  0  0  0  0  0  0  0  0  0
   -8.2150  -10.5020    6.9960 C   0  0  2  0  0  0  0  0  0  0  0  0
   -7.3860   -9.3700    6.3840 C   0  0  1  0  0  0  0  0  0  0  0  0
   -6.9300   -9.7290    4.9860 C   0  0  2  0  0  0  0  0  0  0  0  0
   -6.2400  -11.0670    4.9650 C   0  0  1  0  0  0  0  0  0  0  0  0
   -7.0680  -12.1220    5.6730 C   0  0  1  0  0  0  0  0  0  0  0  0
   -6.2620  -13.4220    5.8760 C   0  0  0  0  0  0  0  0  0  0  0  0
   -8.1810   -8.1890    6.4000 O   0  0  0  0  0  0  0  0  0  0  0  0
   -6.0840   -8.7070    4.4130 O   0  0  0  0  0  0  0  0  0  0  0  0
   -6.1080  -11.4320    3.5560 O   0  0  0  0  0  0  0  0  0  0  0  0
   -7.4490  -11.7000    6.9760 O   0  0  0  0  0  0  0  0  0  0  0  0
   -7.0700  -14.4990    6.2480 O   0  0  0  0  0  0  0  0  0  0  0  0
   -4.8230  -11.7880    3.0610 C   0  0  2  0  0  0  0  0  0  0  0  0
   -4.7090  -11.1960    1.6860 C   0  0  1  0  0  0  0  0  0  0  0  0
   -5.6880  -11.8020    0.7060 C   0  0  2  0  0  0  0  0  0  0  0  0
   -5.5820  -13.3200    0.7460 C   0  0  1  0  0  0  0  0  0  0  0  0
   -5.6700  -13.8330    2.1950 C   0  0  1  0  0  0  0  0  0  0  0  0
   -5.4700  -15.3310    2.3470 C   0  0  0  0  0  0  0  0  0  0  0  0
   -4.8630   -9.7770    1.7420 O   0  0  0  0  0  0  0  0  0  0  0  0
   -5.4000  -11.2750   -0.6050 O   0  0  0  0  0  0  0  0  0  0  0  0
   -6.6430  -13.7800   -0.0940 O   0  0  0  0  0  0  0  0  0  0  0  0
   -4.6730  -13.1940    3.0010 O   0  0  0  0  0  0  0  0  0  0  0  0
   -4.1450  -15.7400    1.9100 O   0  0  0  0  0  0  0  0  0  0  0  0
   -6.4440  -15.0440   -0.7080 C   0  0  2  0  0  0  0  0  0  0  0  0
   -6.7060  -14.8580   -2.1980 C   0  0  1  0  0  0  0  0  0  0  0  0
   -8.1450  -14.4260   -2.4150 C   0  0  2  0  0  0  0  0  0  0  0  0
   -9.0840  -15.3630   -1.7060 C   0  0  1  0  0  0  0  0  0  0  0  0
   -8.7070  -15.5700   -0.2660 C   0  0  1  0  0  0  0  0  0  0  0  0
   -9.6200  -16.6210    0.4010 C   0  0  0  0  0  0  0  0  0  0  0  0
   -5.8210  -13.9180   -2.7530 O   0  0  0  0  0  0  0  0  0  0  0  0
   -8.4130  -14.3810   -3.8120 O   0  0  0  0  0  0  0  0  0  0  0  0
  -10.4460  -14.9010   -1.8780 O   0  0  0  0  0  0  0  0  0  0  0  0
   -7.3510  -15.9800   -0.1580 O   0  0  0  0  0  0  0  0  0  0  0  0
   -9.4330  -17.8700   -0.2190 O   0  0  0  0  0  0  0  0  0  0  0  0
  -11.0020  -16.3960   -3.1940 H   0  0  0  0  0  0  0  0  0  0  0  0
  -12.7650  -15.2880   -4.3000 H   0  0  0  0  0  0  0  0  0  0  0  0
  -12.3510  -12.9900   -2.3480 H   0  0  0  0  0  0  0  0  0  0  0  0
  -14.6500  -14.9870   -2.5680 H   0  0  0  0  0  0  0  0  0  0  0  0
  -12.5150  -14.6230   -0.4150 H   0  0  0  0  0  0  0  0  0  0  0  0
  -13.5200  -16.6570    0.5690 H   0  0  0  0  0  0  0  0  0  0  0  0
  -14.7610  -15.3680    0.4160 H   0  0  0  0  0  0  0  0  0  0  0  0
  -10.5790  -14.7430   -4.8260 H   0  0  0  0  0  0  0  0  0  0  0  0
  -14.2570  -12.2830   -3.4690 H   0  0  0  0  0  0  0  0  0  0  0  0
  -16.2350  -13.7060   -2.5390 H   0  0  0  0  0  0  0  0  0  0  0  0
  -17.4330  -11.6630   -2.0680 H   0  0  0  0  0  0  0  0  0  0  0  0
  -15.1850  -10.9850   -0.1430 H   0  0  0  0  0  0  0  0  0  0  0  0
  -18.0680  -11.5780    0.5930 H   0  0  0  0  0  0  0  0  0  0  0  0
  -15.6610  -13.3780    1.0900 H   0  0  0  0  0  0  0  0  0  0  0  0
  -17.3800  -13.9610    2.6300 H   0  0  0  0  0  0  0  0  0  0  0  0
  -18.6740  -13.7120    1.4090 H   0  0  0  0  0  0  0  0  0  0  0  0
  -15.7330  -10.2350   -2.8160 H   0  0  0  0  0  0  0  0  0  0  0  0
  -16.6710   -9.2320    0.2720 H   0  0  0  0  0  0  0  0  0  0  0  0
  -18.1730  -15.9320    1.7460 H   0  0  0  0  0  0  0  0  0  0  0  0
  -18.2020  -11.6220    2.9330 H   0  0  0  0  0  0  0  0  0  0  0  0
  -17.7790  -10.3750    4.9000 H   0  0  0  0  0  0  0  0  0  0  0  0
  -15.1700   -9.4160    3.7130 H   0  0  0  0  0  0  0  0  0  0  0  0
  -15.7360  -11.3270    6.0300 H   0  0  0  0  0  0  0  0  0  0  0  0
  -14.5820  -11.8490    3.2550 H   0  0  0  0  0  0  0  0  0  0  0  0
  -13.5860  -13.2730    5.1070 H   0  0  0  0  0  0  0  0  0  0  0  0
  -15.2470  -13.8400    5.4890 H   0  0  0  0  0  0  0  0  0  0  0  0
  -17.7910   -8.2520    3.9730 H   0  0  0  0  0  0  0  0  0  0  0  0
  -15.0800   -8.5180    5.8640 H   0  0  0  0  0  0  0  0  0  0  0  0
  -14.1540  -15.2190    3.9750 H   0  0  0  0  0  0  0  0  0  0  0  0
  -14.4460  -10.9770    7.4670 H   0  0  0  0  0  0  0  0  0  0  0  0
  -12.7340   -9.7000    8.5280 H   0  0  0  0  0  0  0  0  0  0  0  0
  -11.4640   -9.2640    5.8040 H   0  0  0  0  0  0  0  0  0  0  0  0
  -10.3970  -10.9580    8.0840 H   0  0  0  0  0  0  0  0  0  0  0  0
  -11.4930  -11.8900    5.3930 H   0  0  0  0  0  0  0  0  0  0  0  0
   -9.6720  -13.2530    6.5050 H   0  0  0  0  0  0  0  0  0  0  0  0
  -10.7540  -13.4310    7.9280 H   0  0  0  0  0  0  0  0  0  0  0  0
  -14.4560   -8.5850    7.4540 H   0  0  0  0  0  0  0  0  0  0  0  0
  -11.2270   -7.6340    7.4490 H   0  0  0  0  0  0  0  0  0  0  0  0
  -10.8820  -15.2110    6.4750 H   0  0  0  0  0  0  0  0  0  0  0  0
   -8.4570  -10.2320    8.0350 H   0  0  0  0  0  0  0  0  0  0  0  0
   -6.4950   -9.2220    7.0110 H   0  0  0  0  0  0  0  0  0  0  0  0
   -7.8310   -9.8160    4.3610 H   0  0  0  0  0  0  0  0  0  0  0  0
   -5.2510  -10.9880    5.4390 H   0  0  0  0  0  0  0  0  0  0  0  0
   -7.9580  -12.3480    5.0670 H   0  0  0  0  0  0  0  0  0  0  0  0
   -5.7520  -13.6720    4.9340 H   0  0  0  0  0  0  0  0  0  0  0  0
   -5.5130  -13.2540    6.6640 H   0  0  0  0  0  0  0  0  0  0  0  0
   -8.4470   -7.9980    7.2920 H   0  0  0  0  0  0  0  0  0  0  0  0
   -6.5360   -7.8720    4.4350 H   0  0  0  0  0  0  0  0  0  0  0  0
   -6.5330  -15.2740    6.3610 H   0  0  0  0  0  0  0  0  0  0  0  0
   -4.0410  -11.3530    3.7010 H   0  0  0  0  0  0  0  0  0  0  0  0
   -3.6970  -11.4190    1.3160 H   0  0  0  0  0  0  0  0  0  0  0  0
   -6.7070  -11.5150    1.0030 H   0  0  0  0  0  0  0  0  0  0  0  0
   -4.6100  -13.6190    0.3260 H   0  0  0  0  0  0  0  0  0  0  0  0
   -6.6680  -13.5800    2.5830 H   0  0  0  0  0  0  0  0  0  0  0  0
   -5.5970  -15.6030    3.4050 H   0  0  0  0  0  0  0  0  0  0  0  0
   -6.2240  -15.8550    1.7410 H   0  0  0  0  0  0  0  0  0  0  0  0
   -4.2410   -9.4150    2.3620 H   0  0  0  0  0  0  0  0  0  0  0  0
   -5.4760  -10.3280   -0.5900 H   0  0  0  0  0  0  0  0  0  0  0  0
   -4.0520  -16.6790    2.0170 H   0  0  0  0  0  0  0  0  0  0  0  0
   -5.4070  -15.3820   -0.5660 H   0  0  0  0  0  0  0  0  0  0  0  0
   -6.5650  -15.8310   -2.6910 H   0  0  0  0  0  0  0  0  0  0  0  0
   -8.2700  -13.4210   -1.9860 H   0  0  0  0  0  0  0  0  0  0  0  0
   -8.9980  -16.3400   -2.2040 H   0  0  0  0  0  0  0  0  0  0  0  0
   -8.8440  -14.6180    0.2680 H   0  0  0  0  0  0  0  0  0  0  0  0
   -9.3670  -16.7010    1.4690 H   0  0  0  0  0  0  0  0  0  0  0  0
  -10.6710  -16.3130    0.2950 H   0  0  0  0  0  0  0  0  0  0  0  0
   -4.9260  -14.2020   -2.6090 H   0  0  0  0  0  0  0  0  0  0  0  0
   -9.3130  -14.1110   -3.9540 H   0  0  0  0  0  0  0  0  0  0  0  0
   -9.9950  -18.5160    0.1920 H   0  0  0  0  0  0  0  0  0  0  0  0
  -14.9676  -16.9815   -0.9621 N   0  0  0  0  0  0  0  0  0  0  0  0
  -14.9119  -18.0841   -1.9479 C   0  0  0  0  0  0  0  0  0  0  0  0
  -16.0334  -17.0059   -1.9887 C   0  0  0  0  0  0  0  0  0  0  0  0
  -15.9442  -17.9949   -1.4200 C   0  0  0  0  0  0  0  0  0  0  0  0
  1 74  1  0
  1 10  1  0
  1 77  1  6
  2  3  1  0
  2  1  1  0
  2 78  1  6
  3  4  1  0
  3 79  1  1
  4  9  1  0
  4  5  1  0
  4 80  1  6
  5  6  1  0
  5 81  1  1
  6 82  1  0
  6 83  1  0
  7  2  1  0
  7 84  1  0
  8  3  1  0
  8 85  1  0
 10  5  1  0
 11  9  1  0
 11 20  1  0
 11 86  1  6
 12 11  1  0
 12 13  1  0
 12 87  1  6
 13 14  1  0
 13 88  1  1
 14 15  1  0
 14 19  1  0
 14 89  1  6
 15 16  1  0
 15 90  1  1
 16 91  1  0
 16 92  1  0
 17 12  1  0
 17 93  1  0
 18 13  1  0
 18 94  1  0
 19 22  1  0
 20 15  1  0
 21 16  1  0
 21 95  1  0
 22 31  1  0
 22 23  1  0
 22 96  1  6
 23 24  1  0
 23 97  1  1
 24 25  1  0
 24 29  1  0
 24 98  1  6
 25 30  1  0
 25 99  1  1
 26 27  1  0
 26 25  1  0
 26100  1  6
 27102  1  0
 27101  1  0
 28 23  1  0
 28103  1  0
 29104  1  0
 30 33  1  0
 31 26  1  0
 32 27  1  0
 32105  1  0
 33 42  1  0
 33 34  1  0
 33106  1  1
 34107  1  1
 35 36  1  0
 35 34  1  0
 35 40  1  0
 35108  1  6
 36109  1  1
 37 38  1  0
 37 36  1  0
 37 42  1  0
 37110  1  6
 38112  1  0
 38111  1  0
 39 34  1  0
 39113  1  0
 40114  1  0
 41 44  1  0
 41 36  1  0
 43 38  1  0
 43115  1  0
 44116  1  1
 45 50  1  0
 45 44  1  0
 45117  1  1
 46 45  1  0
 46118  1  6
 47 46  1  0
 47 48  1  0
 47119  1  1
 48 49  1  0
 48 53  1  0
 48120  1  6
 49 54  1  0
 49121  1  0
 49122  1  0
 50123  1  0
 51 46  1  0
 51124  1  0
 52 47  1  0
 53 44  1  0
 54125  1  0
 55 52  1  0
 55126  1  1
 56 61  1  0
 56 55  1  0
 56127  1  6
 57 58  1  0
 57 56  1  0
 57128  1  1
 58 59  1  0
 58129  1  6
 59 60  1  0
 59 64  1  0
 59130  1  1
 60132  1  0
 60131  1  0
 61133  1  0
 62 57  1  0
 62134  1  0
 63 58  1  0
 64 55  1  0
 65 60  1  0
 65135  1  0
 66 75  1  0
 66 63  1  0
 66136  1  6
 67 66  1  0
 67137  1  6
 68 67  1  0
 68 69  1  0
 68138  1  1
 69 70  1  0
 69139  1  6
 70 75  1  0
 70 71  1  0
 70140  1  1
 71141  1  0
 71142  1  0
 72 67  1  0
 72143  1  0
 73 68  1  0
 73144  1  0
 74 69  1  0
 76 71  1  0
 76145  1  0
  6146  1  0
146147  1  0
146148  1  0
146149  1  0
M  CHG  1 146   1
M  END
