
     RDKit          3D

 78 82  0  0  0  0  0  0  0  0999 V2000
    4.9127   -2.1664    0.0557 C   0  0  0  0  0  0  0  0  0  0  0  0
    4.9447   -0.7206    0.2644 N   0  0  0  0  0  0  0  0  0  0  0  0
    4.3083    0.0765   -0.8360 C   0  0  1  0  0  0  0  0  0  0  0  0
    5.4225    0.3808   -1.8609 C   0  0  0  0  0  0  0  0  0  0  0  0
    6.7048   -0.0751   -1.1772 C   0  0  1  0  0  0  0  0  0  0  0  0
    7.9405    0.7977   -1.3520 C   0  0  0  0  0  0  0  0  0  0  0  0
    9.0976    0.2232   -0.5229 C   0  0  0  0  0  0  0  0  0  0  0  0
    8.7189   -0.0253    0.9449 C   0  0  0  0  0  0  0  0  0  0  0  0
    7.4219   -0.8353    1.0986 C   0  0  0  0  0  0  0  0  0  0  0  0
    6.3107   -0.1591    0.2962 C   0  0  2  0  0  0  0  0  0  0  0  0
    3.0224   -0.4706   -1.4894 C   0  0  0  0  0  0  0  0  0  0  0  0
    1.9261   -0.5581   -0.5363 N   0  0  0  0  0  0  0  0  0  0  0  0
    1.1908    0.5696   -0.2147 C   0  0  0  0  0  0  0  0  0  0  0  0
    0.1123    0.4121    0.9018 C   0  0  0  0  0  0  0  0  0  0  0  0
    0.5019   -0.6322    1.9700 C   0  0  0  0  0  0  0  0  0  0  0  0
   -1.2463    0.0175    0.2869 C   0  0  0  0  0  0  0  0  0  0  0  0
   -2.4167    0.7611    0.4882 C   0  0  0  0  0  0  0  0  0  0  0  0
   -3.6490    0.4112   -0.1054 C   0  0  0  0  0  0  0  0  0  0  0  0
   -4.8050    1.2842    0.1546 C   0  0  0  0  0  0  0  0  0  0  0  0
   -4.8011    2.4719   -0.5184 N   0  0  0  0  0  0  0  0  0  0  0  0
   -5.8362    3.3211   -0.3096 C   0  0  0  0  0  0  0  0  0  0  0  0
   -6.8714    3.0075    0.5346 C   0  0  0  0  0  0  0  0  0  0  0  0
   -6.8572    1.8080    1.2202 C   0  0  0  0  0  0  0  0  0  0  0  0
   -8.0324    1.7475    2.1168 C   0  0  0  0  0  0  0  0  0  0  0  0
   -8.8521    2.8854    1.5037 C   0  0  0  0  0  0  0  0  0  0  0  0
   -7.9551    3.7928    0.8132 O   0  0  0  0  0  0  0  0  0  0  0  0
   -5.8095    0.9235    1.0564 C   0  0  0  0  0  0  0  0  0  0  0  0
   -3.7188   -0.7343   -0.9393 C   0  0  0  0  0  0  0  0  0  0  0  0
   -5.0012   -1.0634   -1.6850 C   0  0  0  0  0  0  0  0  0  0  0  0
   -5.8374   -2.1274   -0.9776 C   0  0  0  0  0  0  0  0  0  0  0  0
   -7.1619   -2.3338   -1.6825 C   0  0  0  0  0  0  0  0  0  0  0  0
   -7.9259   -1.2195   -1.5680 F   0  0  0  0  0  0  0  0  0  0  0  0
   -7.8417   -3.3314   -1.0611 F   0  0  0  0  0  0  0  0  0  0  0  0
   -2.5739   -1.5436   -1.0876 C   0  0  0  0  0  0  0  0  0  0  0  0
   -2.5435   -2.6392   -1.9689 N   0  0  0  0  0  0  0  0  0  0  0  0
   -1.3577   -1.1301   -0.5159 C   0  0  0  0  0  0  0  0  0  0  0  0
    0.0805    1.7795    1.6330 C   0  0  0  0  0  0  0  0  0  0  0  0
    1.3500    1.6263   -0.8285 O   0  0  0  0  0  0  0  0  0  0  0  0
    5.3431   -2.4809   -0.9002 H   0  0  0  0  0  0  0  0  0  0  0  0
    5.4417   -2.6854    0.8627 H   0  0  0  0  0  0  0  0  0  0  0  0
    3.8850   -2.5415    0.1014 H   0  0  0  0  0  0  0  0  0  0  0  0
    4.0397    1.0378   -0.3740 H   0  0  0  0  0  0  0  0  0  0  0  0
    5.2828   -0.1668   -2.7990 H   0  0  0  0  0  0  0  0  0  0  0  0
    5.4428    1.4517   -2.0921 H   0  0  0  0  0  0  0  0  0  0  0  0
    6.9528   -1.0760   -1.5598 H   0  0  0  0  0  0  0  0  0  0  0  0
    8.2278    0.8438   -2.4092 H   0  0  0  0  0  0  0  0  0  0  0  0
    7.7324    1.8249   -1.0279 H   0  0  0  0  0  0  0  0  0  0  0  0
    9.9567    0.9030   -0.5710 H   0  0  0  0  0  0  0  0  0  0  0  0
    9.4195   -0.7263   -0.9696 H   0  0  0  0  0  0  0  0  0  0  0  0
    9.5392   -0.5465    1.4522 H   0  0  0  0  0  0  0  0  0  0  0  0
    8.5992    0.9431    1.4489 H   0  0  0  0  0  0  0  0  0  0  0  0
    7.5997   -1.8577    0.7450 H   0  0  0  0  0  0  0  0  0  0  0  0
    7.1467   -0.8955    2.1578 H   0  0  0  0  0  0  0  0  0  0  0  0
    6.2111    0.8591    0.7050 H   0  0  0  0  0  0  0  0  0  0  0  0
    3.1752   -1.4710   -1.9082 H   0  0  0  0  0  0  0  0  0  0  0  0
    2.7191    0.1830   -2.3154 H   0  0  0  0  0  0  0  0  0  0  0  0
    2.0209   -1.2765    0.1666 H   0  0  0  0  0  0  0  0  0  0  0  0
    1.5014   -0.4320    2.3740 H   0  0  0  0  0  0  0  0  0  0  0  0
    0.5062   -1.6559    1.5789 H   0  0  0  0  0  0  0  0  0  0  0  0
   -0.2083   -0.6243    2.8062 H   0  0  0  0  0  0  0  0  0  0  0  0
   -2.4011    1.6664    1.0932 H   0  0  0  0  0  0  0  0  0  0  0  0
   -5.8018    4.2602   -0.8502 H   0  0  0  0  0  0  0  0  0  0  0  0
   -8.5670    0.7952    2.0948 H   0  0  0  0  0  0  0  0  0  0  0  0
   -7.7325    1.9896    3.1415 H   0  0  0  0  0  0  0  0  0  0  0  0
   -9.5724    2.5038    0.7655 H   0  0  0  0  0  0  0  0  0  0  0  0
   -9.4082    3.4380    2.2683 H   0  0  0  0  0  0  0  0  0  0  0  0
   -5.7646   -0.0093    1.6061 H   0  0  0  0  0  0  0  0  0  0  0  0
   -5.5978   -0.1569   -1.8390 H   0  0  0  0  0  0  0  0  0  0  0  0
   -4.7554   -1.3937   -2.7025 H   0  0  0  0  0  0  0  0  0  0  0  0
   -6.0334   -1.8358    0.0596 H   0  0  0  0  0  0  0  0  0  0  0  0
   -5.3015   -3.0811   -0.9255 H   0  0  0  0  0  0  0  0  0  0  0  0
   -7.0516   -2.5885   -2.7408 H   0  0  0  0  0  0  0  0  0  0  0  0
   -1.7709   -3.2764   -1.8026 H   0  0  0  0  0  0  0  0  0  0  0  0
   -3.4215   -3.1305   -2.0682 H   0  0  0  0  0  0  0  0  0  0  0  0
   -0.4704   -1.7256   -0.7195 H   0  0  0  0  0  0  0  0  0  0  0  0
   -0.2439    2.5919    0.9715 H   0  0  0  0  0  0  0  0  0  0  0  0
    1.0782    2.0473    2.0031 H   0  0  0  0  0  0  0  0  0  0  0  0
   -0.5916    1.7631    2.4993 H   0  0  0  0  0  0  0  0  0  0  0  0
  1  2  1  0
  2  3  1  0
  3  4  1  0
  4  5  1  0
  5  6  1  0
  6  7  1  0
  7  8  1  0
  8  9  1  0
  9 10  1  0
  3 11  1  0
 11 12  1  0
 12 13  1  0
 13 14  1  0
 14 15  1  0
 14 16  1  0
 16 17  1  0
 17 18  2  0
 18 19  1  0
 19 20  1  0
 20 21  2  0
 21 22  1  0
 22 23  2  0
 23 24  1  0
 24 25  1  0
 25 26  1  0
 23 27  1  0
 18 28  1  0
 28 29  1  0
 29 30  1  0
 30 31  1  0
 31 32  1  0
 31 33  1  0
 28 34  2  0
 34 35  1  0
 34 36  1  0
 14 37  1  0
 13 38  2  0
 10  2  1  0
 10  5  1  0
 36 16  2  0
 27 19  2  0
 26 22  1  0
  1 39  1  0
  1 40  1  0
  1 41  1  0
  3 42  1  1
  4 43  1  0
  4 44  1  0
  5 45  1  6
  6 46  1  0
  6 47  1  0
  7 48  1  0
  7 49  1  0
  8 50  1  0
  8 51  1  0
  9 52  1  0
  9 53  1  0
 10 54  1  1
 11 55  1  0
 11 56  1  0
 12 57  1  0
 15 58  1  0
 15 59  1  0
 15 60  1  0
 17 61  1  0
 21 62  1  0
 24 63  1  0
 24 64  1  0
 25 65  1  0
 25 66  1  0
 27 67  1  0
 29 68  1  0
 29 69  1  0
 30 70  1  0
 30 71  1  0
 31 72  1  0
 35 73  1  0
 35 74  1  0
 36 75  1  0
 37 76  1  0
 37 77  1  0
 37 78  1  0
M  END
$$$$
