
     RDKit          3D

 38 40  0  0  0  0  0  0  0  0999 V2000
    2.9169    1.9319    1.0208 O   0  0  0  0  0  0  0  0  0  0  0  0
    3.5567    1.2086    0.2765 C   0  0  0  0  0  0  0  0  0  0  0  0
    4.9029    1.2951    0.0973 O   0  0  0  0  0  0  0  0  0  0  0  0
    5.5346    2.3272    0.8682 C   0  0  0  0  0  0  0  0  0  0  0  0
    7.0201    2.3005    0.5653 C   0  0  0  0  0  0  0  0  0  0  0  0
    3.0947    0.1953   -0.5102 N   0  0  0  0  0  0  0  0  0  0  0  0
    1.7813   -0.2005   -0.6038 C   0  0  0  0  0  0  0  0  0  0  0  0
    1.5318   -1.3243   -1.5259 C   0  0  0  0  0  0  0  0  0  0  0  0
    0.2518   -1.8376   -1.7269 C   0  0  0  0  0  0  0  0  0  0  0  0
   -0.9082   -1.3822   -1.1151 N   0  0  0  0  0  0  0  0  0  0  0  0
   -2.2113   -1.8459   -1.2690 C   0  0  0  0  0  0  0  0  0  0  0  0
   -3.2126   -1.1263   -0.4594 C   0  0  0  0  0  0  0  0  0  0  0  0
   -4.4951   -1.4341   -0.4827 N   0  0  0  0  0  0  0  0  0  0  0  0
   -5.2043   -0.6042    0.3669 C   0  0  0  0  0  0  0  0  0  0  0  0
   -6.5948   -0.6463    0.5931 C   0  0  0  0  0  0  0  0  0  0  0  0
   -7.1826    0.2579    1.4838 C   0  0  0  0  0  0  0  0  0  0  0  0
   -6.4030    1.1994    2.1485 C   0  0  0  0  0  0  0  0  0  0  0  0
   -5.0214    1.2614    1.9412 C   0  0  0  0  0  0  0  0  0  0  0  0
   -4.4425    0.3482    1.0443 C   0  0  0  0  0  0  0  0  0  0  0  0
   -2.7947    0.1749    0.5838 S   0  0  0  0  0  0  0  0  0  0  0  0
   -2.5296   -2.7741   -2.0093 O   0  0  0  0  0  0  0  0  0  0  0  0
    0.2288   -3.1248   -2.8327 S   0  0  0  0  0  0  0  0  0  0  0  0
    1.9093   -3.0437   -3.0802 C   0  0  0  0  0  0  0  0  0  0  0  0
    2.4885   -2.0460   -2.3291 C   0  0  0  0  0  0  0  0  0  0  0  0
    0.8520    0.3119    0.0134 O   0  0  0  0  0  0  0  0  0  0  0  0
    5.3716    2.1432    1.9360 H   0  0  0  0  0  0  0  0  0  0  0  0
    5.1182    3.3023    0.5918 H   0  0  0  0  0  0  0  0  0  0  0  0
    7.1985    2.4613   -0.5031 H   0  0  0  0  0  0  0  0  0  0  0  0
    7.5477    3.0729    1.1318 H   0  0  0  0  0  0  0  0  0  0  0  0
    7.4471    1.3239    0.8160 H   0  0  0  0  0  0  0  0  0  0  0  0
    3.8116   -0.2637   -1.0412 H   0  0  0  0  0  0  0  0  0  0  0  0
   -0.7694   -0.6029   -0.4693 H   0  0  0  0  0  0  0  0  0  0  0  0
   -7.1979   -1.3831    0.0716 H   0  0  0  0  0  0  0  0  0  0  0  0
   -8.2560    0.2217    1.6551 H   0  0  0  0  0  0  0  0  0  0  0  0
   -6.8728    1.8971    2.8388 H   0  0  0  0  0  0  0  0  0  0  0  0
   -4.4141    1.9967    2.4605 H   0  0  0  0  0  0  0  0  0  0  0  0
    2.3922   -3.7299   -3.7632 H   0  0  0  0  0  0  0  0  0  0  0  0
    3.5539   -1.8620   -2.3716 H   0  0  0  0  0  0  0  0  0  0  0  0
  1  2  2  0
  2  3  1  0
  3  4  1  0
  4  5  1  0
  2  6  1  0
  6  7  1  0
  7  8  1  0
  8  9  2  0
  9 10  1  0
 10 11  1  0
 11 12  1  0
 12 13  2  0
 13 14  1  0
 14 15  2  0
 15 16  1  0
 16 17  2  0
 17 18  1  0
 18 19  2  0
 19 20  1  0
 11 21  2  0
  9 22  1  0
 22 23  1  0
 23 24  2  0
  7 25  2  0
 24  8  1  0
 20 12  1  0
 19 14  1  0
  4 26  1  0
  4 27  1  0
  5 28  1  0
  5 29  1  0
  5 30  1  0
  6 31  1  0
 10 32  1  0
 15 33  1  0
 16 34  1  0
 17 35  1  0
 18 36  1  0
 23 37  1  0
 24 38  1  0
M  END
$$$$
