
     RDKit          3D

 74 77  0  0  0  0  0  0  0  0999 V2000
   -3.5912    3.7734    4.1510 C   0  0  0  0  0  0  0  0  0  0  0  0
   -3.5595    4.1289    2.6750 C   0  0  0  0  0  0  0  0  0  0  0  0
   -3.0493    2.9826    1.8086 C   0  0  0  0  0  0  0  0  0  0  0  0
   -2.6463    3.3752    0.3903 C   0  0  0  0  0  0  0  0  0  0  0  0
   -2.0187    2.2746   -0.4321 C   0  0  0  0  0  0  0  0  0  0  0  0
   -0.8645    1.6235    0.0133 C   0  0  0  0  0  0  0  0  0  0  0  0
   -0.2833    0.5628   -0.7082 C   0  0  0  0  0  0  0  0  0  0  0  0
    0.8854   -0.1051   -0.1120 C   0  0  0  0  0  0  0  0  0  0  0  0
    0.7331   -0.9924    0.9581 C   0  0  0  0  0  0  0  0  0  0  0  0
    1.8379   -1.5898    1.5351 C   0  0  0  0  0  0  0  0  0  0  0  0
    1.5628   -2.4465    2.5614 O   0  0  0  0  0  0  0  0  0  0  0  0
    0.1167   -2.5647    2.5524 C   0  0  2  0  0  0  0  0  0  0  0  0
   -0.2613   -3.9497    2.0221 C   0  0  0  0  0  0  0  0  0  0  0  0
   -1.7756   -4.1562    1.9754 C   0  0  0  0  0  0  0  0  0  0  0  0
   -2.5572   -2.8798    1.6276 C   0  0  1  0  0  0  0  0  0  0  0  0
   -1.6893   -1.8781    0.8639 C   0  0  0  0  0  0  0  0  0  0  0  0
   -0.4888   -1.4249    1.7043 C   0  0  2  0  0  0  0  0  0  0  0  0
   -3.8155   -3.2137    0.8334 C   0  0  0  0  0  0  0  0  0  0  0  0
    3.0948   -1.3021    1.0742 C   0  0  0  0  0  0  0  0  0  0  0  0
    3.3051   -0.4475    0.0446 N   0  0  0  0  0  0  0  0  0  0  0  0
    2.2093    0.1284   -0.5459 C   0  0  0  0  0  0  0  0  0  0  0  0
    2.5132    0.9809   -1.7571 C   0  0  0  0  0  0  0  0  0  0  0  0
    3.5268    2.0879   -1.4937 C   0  0  0  0  0  0  0  0  0  0  0  0
    4.9447    1.5970   -1.6763 C   0  0  0  0  0  0  0  0  0  0  0  0
    5.5456    1.1561   -0.5177 N   0  0  0  0  0  0  0  0  0  0  0  0
    6.9058    0.6378   -0.5625 C   0  0  0  0  0  0  0  0  0  0  0  0
    7.0332   -0.7785   -1.1298 C   0  0  0  0  0  0  0  0  0  0  0  0
    8.1561   -0.8417   -1.8913 F   0  0  0  0  0  0  0  0  0  0  0  0
    7.2347   -1.6454   -0.0927 F   0  0  0  0  0  0  0  0  0  0  0  0
    5.5054    1.5780   -2.7677 O   0  0  0  0  0  0  0  0  0  0  0  0
   -0.8639    0.1646   -1.9364 C   0  0  0  0  0  0  0  0  0  0  0  0
   -0.2642   -0.9708   -2.7396 C   0  0  0  0  0  0  0  0  0  0  0  0
   -1.9912    0.8707   -2.4332 C   0  0  0  0  0  0  0  0  0  0  0  0
   -2.6154    0.5585   -3.7778 C   0  0  0  0  0  0  0  0  0  0  0  0
   -3.4583   -0.6262   -3.7219 N   0  0  0  0  0  0  0  0  0  0  0  0
   -2.5607    1.9049   -1.6652 C   0  0  0  0  0  0  0  0  0  0  0  0
   -3.0085    1.8269    2.2271 O   0  0  0  0  0  0  0  0  0  0  0  0
   -3.9129    4.6329    4.7444 H   0  0  0  0  0  0  0  0  0  0  0  0
   -2.6018    3.4558    4.5014 H   0  0  0  0  0  0  0  0  0  0  0  0
   -4.2930    2.9515    4.3311 H   0  0  0  0  0  0  0  0  0  0  0  0
   -4.5656    4.3745    2.3353 H   0  0  0  0  0  0  0  0  0  0  0  0
   -2.9129    4.9958    2.5253 H   0  0  0  0  0  0  0  0  0  0  0  0
   -3.5496    3.7528   -0.1052 H   0  0  0  0  0  0  0  0  0  0  0  0
   -1.9284    4.1997    0.4553 H   0  0  0  0  0  0  0  0  0  0  0  0
   -0.4265    1.9119    0.9710 H   0  0  0  0  0  0  0  0  0  0  0  0
   -0.2226   -2.4693    3.5926 H   0  0  0  0  0  0  0  0  0  0  0  0
    0.2152   -4.7346    2.6229 H   0  0  0  0  0  0  0  0  0  0  0  0
    0.1533   -4.0781    1.0098 H   0  0  0  0  0  0  0  0  0  0  0  0
   -1.9969   -4.9506    1.2499 H   0  0  0  0  0  0  0  0  0  0  0  0
   -2.1254   -4.5272    2.9523 H   0  0  0  0  0  0  0  0  0  0  0  0
   -2.8772   -2.4041    2.5635 H   0  0  0  0  0  0  0  0  0  0  0  0
   -2.2964   -1.0046    0.5890 H   0  0  0  0  0  0  0  0  0  0  0  0
   -1.3534   -2.3324   -0.0780 H   0  0  0  0  0  0  0  0  0  0  0  0
   -0.7935   -0.6106    2.3750 H   0  0  0  0  0  0  0  0  0  0  0  0
   -4.4393   -3.9381    1.3733 H   0  0  0  0  0  0  0  0  0  0  0  0
   -3.5740   -3.6346   -0.1480 H   0  0  0  0  0  0  0  0  0  0  0  0
   -4.4139   -2.3059    0.6702 H   0  0  0  0  0  0  0  0  0  0  0  0
    3.9777   -1.7610    1.5102 H   0  0  0  0  0  0  0  0  0  0  0  0
    1.6053    1.4726   -2.1277 H   0  0  0  0  0  0  0  0  0  0  0  0
    2.8558    0.3131   -2.5589 H   0  0  0  0  0  0  0  0  0  0  0  0
    3.4064    2.5427   -0.5027 H   0  0  0  0  0  0  0  0  0  0  0  0
    3.3805    2.8901   -2.2278 H   0  0  0  0  0  0  0  0  0  0  0  0
    4.9030    0.7440    0.1669 H   0  0  0  0  0  0  0  0  0  0  0  0
    7.2902    0.6650    0.4634 H   0  0  0  0  0  0  0  0  0  0  0  0
    7.5003    1.3401   -1.1557 H   0  0  0  0  0  0  0  0  0  0  0  0
    6.1704   -1.1124   -1.7214 H   0  0  0  0  0  0  0  0  0  0  0  0
    0.3169   -1.6515   -2.1116 H   0  0  0  0  0  0  0  0  0  0  0  0
    0.3929   -0.5650   -3.5147 H   0  0  0  0  0  0  0  0  0  0  0  0
   -1.0339   -1.5901   -3.2064 H   0  0  0  0  0  0  0  0  0  0  0  0
   -3.2148    1.4080   -4.1272 H   0  0  0  0  0  0  0  0  0  0  0  0
   -1.8235    0.4315   -4.5228 H   0  0  0  0  0  0  0  0  0  0  0  0
   -4.1539   -0.5109   -2.9885 H   0  0  0  0  0  0  0  0  0  0  0  0
   -3.9678   -0.7270   -4.5962 H   0  0  0  0  0  0  0  0  0  0  0  0
   -3.4389    2.4263   -2.0457 H   0  0  0  0  0  0  0  0  0  0  0  0
  1  2  1  0
  2  3  1  0
  3  4  1  0
  4  5  1  0
  5  6  1  0
  6  7  2  0
  7  8  1  0
  8  9  1  0
  9 10  2  0
 10 11  1  0
 11 12  1  0
 12 13  1  0
 13 14  1  0
 14 15  1  0
 15 16  1  0
 16 17  1  0
 15 18  1  0
 10 19  1  0
 19 20  2  0
 20 21  1  0
 21 22  1  0
 22 23  1  0
 23 24  1  0
 24 25  1  0
 25 26  1  0
 26 27  1  0
 27 28  1  0
 27 29  1  0
 24 30  2  0
  7 31  1  0
 31 32  1  0
 31 33  2  0
 33 34  1  0
 34 35  1  0
 33 36  1  0
  3 37  2  0
 36  5  2  0
 21  8  2  0
 17  9  1  0
 17 12  1  0
  1 38  1  0
  1 39  1  0
  1 40  1  0
  2 41  1  0
  2 42  1  0
  4 43  1  0
  4 44  1  0
  6 45  1  0
 12 46  1  1
 13 47  1  0
 13 48  1  0
 14 49  1  0
 14 50  1  0
 15 51  1  1
 16 52  1  0
 16 53  1  0
 17 54  1  1
 18 55  1  0
 18 56  1  0
 18 57  1  0
 19 58  1  0
 22 59  1  0
 22 60  1  0
 23 61  1  0
 23 62  1  0
 25 63  1  0
 26 64  1  0
 26 65  1  0
 27 66  1  0
 32 67  1  0
 32 68  1  0
 32 69  1  0
 34 70  1  0
 34 71  1  0
 35 72  1  0
 35 73  1  0
 36 74  1  0
M  END
$$$$
