
     RDKit          3D

 78 82  0  0  0  0  0  0  0  0999 V2000
   -5.1085    0.3764   -3.8799 C   0  0  0  0  0  0  0  0  0  0  0  0
   -5.3426    0.6762   -2.4217 C   0  0  0  0  0  0  0  0  0  0  0  0
   -5.0775   -0.2779   -1.4216 C   0  0  0  0  0  0  0  0  0  0  0  0
   -4.5668   -1.6166   -1.7022 C   0  0  0  0  0  0  0  0  0  0  0  0
   -3.4021   -2.1952   -1.3671 C   0  0  0  0  0  0  0  0  0  0  0  0
   -2.2598   -1.6918   -0.7233 N   0  0  0  0  0  0  0  0  0  0  0  0
   -1.2131   -2.5952   -0.1977 C   0  0  0  0  0  0  0  0  0  0  0  0
   -0.3156   -1.8876    0.8100 C   0  0  0  0  0  0  0  0  0  0  0  0
    0.4139   -0.7154    0.1532 C   0  0  0  0  0  0  0  0  0  0  0  0
    1.5871   -1.1817   -0.5281 O   0  0  0  0  0  0  0  0  0  0  0  0
    2.7324   -1.3435    0.3068 C   0  0  0  0  0  0  0  0  0  0  0  0
    3.5963   -0.0865    0.2510 C   0  0  0  0  0  0  0  0  0  0  0  0
    4.8791   -0.2660    1.0648 C   0  0  0  0  0  0  0  0  0  0  0  0
    5.7857    0.9718    1.0368 C   0  0  2  0  0  0  0  0  0  0  0  0
    6.4109    1.2640   -0.3554 C   0  0  0  0  0  0  0  0  0  0  0  0
    7.8658    0.9585   -0.1125 C   0  0  1  0  0  0  0  0  0  0  0  0
    9.0124    1.6499   -0.8141 C   0  0  0  0  0  0  0  0  0  0  0  0
   10.1567    1.5207    0.2221 C   0  0  0  0  0  0  0  0  0  0  0  0
    9.4948    1.0996    1.5569 C   0  0  0  0  0  0  0  0  0  0  0  0
    8.0398    1.4426    1.3115 C   0  0  2  0  0  0  0  0  0  0  0  0
    6.9307    0.7873    1.9861 N   0  0  0  0  0  0  0  0  0  0  0  0
   -0.4598   -0.0178   -0.8920 C   0  0  0  0  0  0  0  0  0  0  0  0
   -1.9469   -0.2519   -0.6526 C   0  0  0  0  0  0  0  0  0  0  0  0
   -3.4459   -3.6261   -1.8137 C   0  0  0  0  0  0  0  0  0  0  0  0
   -4.6892   -3.7914   -2.4793 O   0  0  0  0  0  0  0  0  0  0  0  0
   -5.3783   -2.6259   -2.4010 C   0  0  0  0  0  0  0  0  0  0  0  0
   -6.4912   -2.4498   -2.8631 O   0  0  0  0  0  0  0  0  0  0  0  0
   -5.2930   -0.0489   -0.1034 N   0  0  0  0  0  0  0  0  0  0  0  0
   -5.8663    1.1332    0.2315 C   0  0  0  0  0  0  0  0  0  0  0  0
   -6.1528    1.3289    1.6896 C   0  0  0  0  0  0  0  0  0  0  0  0
   -5.7462    0.2819    2.4897 N   0  0  0  0  0  0  0  0  0  0  0  0
   -6.1685    0.1549    3.8765 C   0  0  0  0  0  0  0  0  0  0  0  0
   -7.4068   -0.7237    4.0561 C   0  0  0  0  0  0  0  0  0  0  0  0
   -8.4580   -0.2487    3.3385 F   0  0  0  0  0  0  0  0  0  0  0  0
   -7.1495   -1.9779    3.5954 F   0  0  0  0  0  0  0  0  0  0  0  0
   -6.6941    2.3427    2.1124 O   0  0  0  0  0  0  0  0  0  0  0  0
   -6.1959    2.1180   -0.6810 C   0  0  0  0  0  0  0  0  0  0  0  0
   -5.8826    1.9153   -2.0244 C   0  0  0  0  0  0  0  0  0  0  0  0
   -6.3150    2.8698   -2.9613 N   0  0  0  0  0  0  0  0  0  0  0  0
   -4.4289   -0.4670   -4.0340 H   0  0  0  0  0  0  0  0  0  0  0  0
   -4.6348    1.2270   -4.3818 H   0  0  0  0  0  0  0  0  0  0  0  0
   -6.0588    0.1489   -4.3725 H   0  0  0  0  0  0  0  0  0  0  0  0
   -1.6829   -3.4458    0.3117 H   0  0  0  0  0  0  0  0  0  0  0  0
   -0.6170   -2.9918   -1.0274 H   0  0  0  0  0  0  0  0  0  0  0  0
    0.3908   -2.6108    1.2315 H   0  0  0  0  0  0  0  0  0  0  0  0
   -0.9321   -1.5128    1.6387 H   0  0  0  0  0  0  0  0  0  0  0  0
    0.7041    0.0105    0.9238 H   0  0  0  0  0  0  0  0  0  0  0  0
    2.4529   -1.5932    1.3363 H   0  0  0  0  0  0  0  0  0  0  0  0
    3.2965   -2.1907   -0.0965 H   0  0  0  0  0  0  0  0  0  0  0  0
    3.0274    0.7721    0.6249 H   0  0  0  0  0  0  0  0  0  0  0  0
    3.8244    0.1374   -0.7969 H   0  0  0  0  0  0  0  0  0  0  0  0
    5.4311   -1.1393    0.6935 H   0  0  0  0  0  0  0  0  0  0  0  0
    4.6007   -0.4847    2.1039 H   0  0  0  0  0  0  0  0  0  0  0  0
    5.2089    1.8470    1.3617 H   0  0  0  0  0  0  0  0  0  0  0  0
    6.0068    0.6514   -1.1655 H   0  0  0  0  0  0  0  0  0  0  0  0
    6.2720    2.3204   -0.6189 H   0  0  0  0  0  0  0  0  0  0  0  0
    8.0155   -0.1310   -0.1880 H   0  0  0  0  0  0  0  0  0  0  0  0
    9.2660    1.1833   -1.7704 H   0  0  0  0  0  0  0  0  0  0  0  0
    8.7930    2.7081   -0.9997 H   0  0  0  0  0  0  0  0  0  0  0  0
   10.6779    2.4783    0.3286 H   0  0  0  0  0  0  0  0  0  0  0  0
   10.8937    0.7726   -0.0921 H   0  0  0  0  0  0  0  0  0  0  0  0
    9.6293    0.0221    1.7155 H   0  0  0  0  0  0  0  0  0  0  0  0
    9.9179    1.6245    2.4183 H   0  0  0  0  0  0  0  0  0  0  0  0
    7.9129    2.5332    1.3952 H   0  0  0  0  0  0  0  0  0  0  0  0
    7.1390   -0.2086    2.0789 H   0  0  0  0  0  0  0  0  0  0  0  0
   -0.1951   -0.3584   -1.9027 H   0  0  0  0  0  0  0  0  0  0  0  0
   -0.2487    1.0598   -0.8740 H   0  0  0  0  0  0  0  0  0  0  0  0
   -2.2534    0.1464    0.3209 H   0  0  0  0  0  0  0  0  0  0  0  0
   -2.4849    0.3061   -1.4240 H   0  0  0  0  0  0  0  0  0  0  0  0
   -3.4098   -4.3203   -0.9688 H   0  0  0  0  0  0  0  0  0  0  0  0
   -2.6385   -3.8589   -2.5154 H   0  0  0  0  0  0  0  0  0  0  0  0
   -5.4266   -0.5460    1.9871 H   0  0  0  0  0  0  0  0  0  0  0  0
   -5.3241   -0.2911    4.4158 H   0  0  0  0  0  0  0  0  0  0  0  0
   -6.3673    1.1537    4.2826 H   0  0  0  0  0  0  0  0  0  0  0  0
   -7.7027   -0.7934    5.1066 H   0  0  0  0  0  0  0  0  0  0  0  0
   -6.6849    3.0262   -0.3450 H   0  0  0  0  0  0  0  0  0  0  0  0
   -6.4745    3.7973   -2.5772 H   0  0  0  0  0  0  0  0  0  0  0  0
   -5.7758    2.9070   -3.8181 H   0  0  0  0  0  0  0  0  0  0  0  0
  1  2  1  0
  2  3  2  0
  3  4  1  0
  4  5  2  0
  5  6  1  0
  6  7  1  0
  7  8  1  0
  8  9  1  0
  9 10  1  0
 10 11  1  0
 11 12  1  0
 12 13  1  0
 13 14  1  0
 14 15  1  0
 15 16  1  0
 16 17  1  0
 17 18  1  0
 18 19  1  0
 19 20  1  0
 20 21  1  0
  9 22  1  0
 22 23  1  0
  5 24  1  0
 24 25  1  0
 25 26  1  0
 26 27  2  0
  3 28  1  0
 28 29  2  0
 29 30  1  0
 30 31  1  0
 31 32  1  0
 32 33  1  0
 33 34  1  0
 33 35  1  0
 30 36  2  0
 29 37  1  0
 37 38  2  0
 38 39  1  0
 38  2  1  0
 26  4  1  0
 23  6  1  0
 21 14  1  0
 20 16  1  0
  1 40  1  0
  1 41  1  0
  1 42  1  0
  7 43  1  0
  7 44  1  0
  8 45  1  0
  8 46  1  0
  9 47  1  0
 11 48  1  0
 11 49  1  0
 12 50  1  0
 12 51  1  0
 13 52  1  0
 13 53  1  0
 14 54  1  1
 15 55  1  0
 15 56  1  0
 16 57  1  1
 17 58  1  0
 17 59  1  0
 18 60  1  0
 18 61  1  0
 19 62  1  0
 19 63  1  0
 20 64  1  6
 21 65  1  0
 22 66  1  0
 22 67  1  0
 23 68  1  0
 23 69  1  0
 24 70  1  0
 24 71  1  0
 31 72  1  0
 32 73  1  0
 32 74  1  0
 33 75  1  0
 37 76  1  0
 39 77  1  0
 39 78  1  0
M  END
$$$$
