
     RDKit          3D

 72 77  0  0  0  0  0  0  0  0999 V2000
   -4.9206   -1.0392   -1.2724 C   0  0  0  0  0  0  0  0  0  0  0  0
   -5.3516   -0.5112    0.0647 C   0  0  0  0  0  0  0  0  0  0  0  0
   -6.6858   -0.6584    0.4882 C   0  0  0  0  0  0  0  0  0  0  0  0
   -7.7223   -1.3618   -0.3584 C   0  0  0  0  0  0  0  0  0  0  0  0
   -8.7599   -1.9171    0.3650 N   0  0  0  0  0  0  0  0  0  0  0  0
   -9.9289   -2.4709   -0.2954 C   0  0  0  0  0  0  0  0  0  0  0  0
  -10.9568   -1.4167   -0.6891 C   0  0  0  0  0  0  0  0  0  0  0  0
  -11.5244   -0.9029    0.4403 F   0  0  0  0  0  0  0  0  0  0  0  0
  -11.9664   -1.9998   -1.3893 F   0  0  0  0  0  0  0  0  0  0  0  0
   -7.6713   -1.4162   -1.5807 O   0  0  0  0  0  0  0  0  0  0  0  0
   -7.1964   -0.2190    1.6759 N   0  0  0  0  0  0  0  0  0  0  0  0
   -6.4020    0.4867    2.4987 C   0  0  0  0  0  0  0  0  0  0  0  0
   -4.5080    0.1790    0.9783 C   0  0  0  0  0  0  0  0  0  0  0  0
   -5.0812    0.7004    2.1453 C   0  0  0  0  0  0  0  0  0  0  0  0
   -4.1063    1.3921    2.8246 N   0  0  0  0  0  0  0  0  0  0  0  0
   -2.9098    1.2624    2.1864 C   0  0  0  0  0  0  0  0  0  0  0  0
   -3.0958    0.4751    1.0641 C   0  0  0  0  0  0  0  0  0  0  0  0
   -1.9776   -0.0272    0.1985 C   0  0  0  0  0  0  0  0  0  0  0  0
   -1.7124    0.8041   -1.0617 C   0  0  0  0  0  0  0  0  0  0  0  0
   -1.0161    2.0363   -0.8613 O   0  0  0  0  0  0  0  0  0  0  0  0
    0.2469    1.9471   -0.2148 C   0  0  2  0  0  0  0  0  0  0  0  0
    0.9988    3.2584   -0.3904 C   0  0  0  0  0  0  0  0  0  0  0  0
    2.4255    2.8872   -0.0100 C   0  0  0  0  0  0  0  0  0  0  0  0
    2.5697    1.4738   -0.3994 N   0  0  0  0  0  0  0  0  0  0  0  0
    3.7833    0.7771   -0.4350 C   0  0  0  0  0  0  0  0  0  0  0  0
    4.9556    1.3167   -0.0417 C   0  0  0  0  0  0  0  0  0  0  0  0
    6.2450    0.5999   -0.1200 C   0  0  0  0  0  0  0  0  0  0  0  0
    6.2107   -0.8048   -0.2447 C   0  0  0  0  0  0  0  0  0  0  0  0
    4.8939   -1.5199   -0.3218 C   0  0  0  0  0  0  0  0  0  0  0  0
    3.7964   -0.6538   -0.9541 C   0  0  0  0  0  0  0  0  0  0  0  0
    7.4121   -1.4933   -0.2199 C   0  0  0  0  0  0  0  0  0  0  0  0
    8.6248   -0.8428   -0.0761 C   0  0  0  0  0  0  0  0  0  0  0  0
    9.7144   -1.8396    0.0101 C   0  0  0  0  0  0  0  0  0  0  0  0
    8.9543   -3.0625   -0.5028 C   0  0  0  0  0  0  0  0  0  0  0  0
    7.5372   -2.8600   -0.2901 O   0  0  0  0  0  0  0  0  0  0  0  0
    8.6844    0.5332    0.0357 C   0  0  0  0  0  0  0  0  0  0  0  0
    7.4955    1.2760   -0.0478 C   0  0  0  0  0  0  0  0  0  0  0  0
    7.5977    2.6740    0.1520 N   0  0  0  0  0  0  0  0  0  0  0  0
    1.2583    0.9406   -0.7904 C   0  0  0  0  0  0  0  0  0  0  0  0
   -3.8416   -0.9973   -1.4109 H   0  0  0  0  0  0  0  0  0  0  0  0
   -5.3626   -0.4316   -2.0674 H   0  0  0  0  0  0  0  0  0  0  0  0
   -5.2069   -2.0883   -1.4020 H   0  0  0  0  0  0  0  0  0  0  0  0
   -8.8306   -1.6096    1.3323 H   0  0  0  0  0  0  0  0  0  0  0  0
   -9.6101   -3.0207   -1.1870 H   0  0  0  0  0  0  0  0  0  0  0  0
  -10.3769   -3.1906    0.3982 H   0  0  0  0  0  0  0  0  0  0  0  0
  -10.5384   -0.5933   -1.2784 H   0  0  0  0  0  0  0  0  0  0  0  0
   -6.8424    0.8457    3.4213 H   0  0  0  0  0  0  0  0  0  0  0  0
   -4.2469    1.8722    3.7009 H   0  0  0  0  0  0  0  0  0  0  0  0
   -2.0122    1.7017    2.6020 H   0  0  0  0  0  0  0  0  0  0  0  0
   -2.2061   -1.0582   -0.0909 H   0  0  0  0  0  0  0  0  0  0  0  0
   -1.0745   -0.1034    0.8128 H   0  0  0  0  0  0  0  0  0  0  0  0
   -2.6536    1.0602   -1.5595 H   0  0  0  0  0  0  0  0  0  0  0  0
   -1.1392    0.2016   -1.7777 H   0  0  0  0  0  0  0  0  0  0  0  0
    0.0952    1.7791    0.8576 H   0  0  0  0  0  0  0  0  0  0  0  0
    0.5934    4.0675    0.2262 H   0  0  0  0  0  0  0  0  0  0  0  0
    0.9533    3.5907   -1.4362 H   0  0  0  0  0  0  0  0  0  0  0  0
    2.5740    2.9879    1.0728 H   0  0  0  0  0  0  0  0  0  0  0  0
    3.1346    3.5309   -0.5424 H   0  0  0  0  0  0  0  0  0  0  0  0
    4.9820    2.3290    0.3422 H   0  0  0  0  0  0  0  0  0  0  0  0
    4.9847   -2.4432   -0.9064 H   0  0  0  0  0  0  0  0  0  0  0  0
    4.6011   -1.8046    0.6993 H   0  0  0  0  0  0  0  0  0  0  0  0
    3.9219   -0.6182   -2.0455 H   0  0  0  0  0  0  0  0  0  0  0  0
    2.8468   -1.1619   -0.7655 H   0  0  0  0  0  0  0  0  0  0  0  0
   10.5839   -1.6039   -0.6061 H   0  0  0  0  0  0  0  0  0  0  0  0
   10.0234   -1.9752    1.0521 H   0  0  0  0  0  0  0  0  0  0  0  0
    9.2732   -3.9756    0.0098 H   0  0  0  0  0  0  0  0  0  0  0  0
    9.1128   -3.2050   -1.5789 H   0  0  0  0  0  0  0  0  0  0  0  0
    9.6360    1.0372    0.1699 H   0  0  0  0  0  0  0  0  0  0  0  0
    7.6451    2.8775    1.1488 H   0  0  0  0  0  0  0  0  0  0  0  0
    6.8134    3.1693   -0.2669 H   0  0  0  0  0  0  0  0  0  0  0  0
    1.0712   -0.0560   -0.3767 H   0  0  0  0  0  0  0  0  0  0  0  0
    1.1853    0.8833   -1.8849 H   0  0  0  0  0  0  0  0  0  0  0  0
  1  2  1  0
  2  3  1  0
  3  4  1  0
  4  5  1  0
  5  6  1  0
  6  7  1  0
  7  8  1  0
  7  9  1  0
  4 10  2  0
  3 11  2  0
 11 12  1  0
  2 13  2  0
 13 14  1  0
 14 15  1  0
 15 16  1  0
 16 17  2  0
 17 18  1  0
 18 19  1  0
 19 20  1  0
 20 21  1  0
 21 22  1  0
 22 23  1  0
 23 24  1  0
 24 25  1  0
 25 26  2  0
 26 27  1  0
 27 28  2  0
 28 29  1  0
 29 30  1  0
 28 31  1  0
 31 32  2  0
 32 33  1  0
 33 34  1  0
 34 35  1  0
 32 36  1  0
 36 37  2  0
 37 38  1  0
 24 39  1  0
 14 12  2  0
 17 13  1  0
 39 21  1  0
 30 25  1  0
 37 27  1  0
 35 31  1  0
  1 40  1  0
  1 41  1  0
  1 42  1  0
  5 43  1  0
  6 44  1  0
  6 45  1  0
  7 46  1  0
 12 47  1  0
 15 48  1  0
 16 49  1  0
 18 50  1  0
 18 51  1  0
 19 52  1  0
 19 53  1  0
 21 54  1  1
 22 55  1  0
 22 56  1  0
 23 57  1  0
 23 58  1  0
 26 59  1  0
 29 60  1  0
 29 61  1  0
 30 62  1  0
 30 63  1  0
 33 64  1  0
 33 65  1  0
 34 66  1  0
 34 67  1  0
 36 68  1  0
 38 69  1  0
 38 70  1  0
 39 71  1  0
 39 72  1  0
M  END
$$$$
