
     RDKit          3D

 74 78  0  0  0  0  0  0  0  0999 V2000
   -2.5663   -0.0691    4.0835 C   0  0  0  0  0  0  0  0  0  0  0  0
   -3.3077    0.1780    2.8058 C   0  0  0  0  0  0  0  0  0  0  0  0
   -4.6527    0.1628    2.8469 N   0  0  0  0  0  0  0  0  0  0  0  0
   -5.2380    0.4135    1.6712 C   0  0  0  0  0  0  0  0  0  0  0  0
   -4.5755    0.6546    0.4898 C   0  0  0  0  0  0  0  0  0  0  0  0
   -5.5558    0.9178   -0.5908 C   0  0  0  0  0  0  0  0  0  0  0  0
   -6.8853    0.5341   -0.0509 N   0  0  0  0  0  0  0  0  0  0  0  0
   -6.7188    0.5086    1.4320 C   0  0  0  0  0  0  0  0  0  0  0  0
   -3.2069    0.6562    0.5311 C   0  0  0  0  0  0  0  0  0  0  0  0
   -2.3451    0.9210   -0.6786 C   0  0  0  0  0  0  0  0  0  0  0  0
   -1.7219   -0.3362   -1.3819 C   0  0  1  0  0  0  0  0  0  0  0  0
   -0.8206    0.1515   -2.5669 C   0  0  0  0  0  0  0  0  0  0  0  0
   -1.4004    1.0403   -3.4510 N   0  0  0  0  0  0  0  0  0  0  0  0
   -0.6544    1.6333   -4.5629 C   0  0  0  0  0  0  0  0  0  0  0  0
   -1.2587    1.3089   -5.9254 C   0  0  0  0  0  0  0  0  0  0  0  0
   -2.5433    1.7625   -5.9614 F   0  0  0  0  0  0  0  0  0  0  0  0
   -0.5896    1.9774   -6.8988 F   0  0  0  0  0  0  0  0  0  0  0  0
    0.3318   -0.2402   -2.7543 O   0  0  0  0  0  0  0  0  0  0  0  0
   -0.8704   -1.1505   -0.3770 C   0  0  0  0  0  0  0  0  0  0  0  0
    0.2113   -0.5372    0.2777 C   0  0  0  0  0  0  0  0  0  0  0  0
    1.0106   -1.2153    1.2178 C   0  0  0  0  0  0  0  0  0  0  0  0
    2.1638   -0.4471    1.8307 C   0  0  0  0  0  0  0  0  0  0  0  0
    3.4614   -0.6571    1.0436 C   0  0  0  0  0  0  0  0  0  0  0  0
    4.6624    0.0053    1.7341 C   0  0  1  0  0  0  0  0  0  0  0  0
    5.9793   -0.2556    0.9796 C   0  0  0  0  0  0  0  0  0  0  0  0
    6.2251    1.0861    0.4103 C   0  0  0  0  0  0  0  0  0  0  0  0
    5.3317    1.9923    0.9537 C   0  0  0  0  0  0  0  0  0  0  0  0
    4.4390    1.4380    1.8309 O   0  0  0  0  0  0  0  0  0  0  0  0
    5.3668    3.3331    0.6300 C   0  0  0  0  0  0  0  0  0  0  0  0
    6.3362    3.7611   -0.2810 C   0  0  0  0  0  0  0  0  0  0  0  0
    7.2444    2.8452   -0.8391 C   0  0  0  0  0  0  0  0  0  0  0  0
    7.1959    1.4935   -0.4883 C   0  0  0  0  0  0  0  0  0  0  0  0
    0.7328   -2.5665    1.5160 C   0  0  0  0  0  0  0  0  0  0  0  0
    1.5852   -3.3577    2.4759 C   0  0  0  0  0  0  0  0  0  0  0  0
   -0.3865   -3.1820    0.9186 C   0  0  0  0  0  0  0  0  0  0  0  0
   -0.6618   -4.5511    1.1143 N   0  0  0  0  0  0  0  0  0  0  0  0
   -1.1277   -2.4910   -0.0562 C   0  0  0  0  0  0  0  0  0  0  0  0
   -2.8479   -1.1715   -2.0354 C   0  0  0  0  0  0  0  0  0  0  0  0
   -2.5686    0.4413    1.7021 N   0  0  0  0  0  0  0  0  0  0  0  0
   -3.1311   -0.7459    4.7309 H   0  0  0  0  0  0  0  0  0  0  0  0
   -2.4106    0.8779    4.6091 H   0  0  0  0  0  0  0  0  0  0  0  0
   -1.5935   -0.5257    3.8810 H   0  0  0  0  0  0  0  0  0  0  0  0
   -5.5647    1.9824   -0.8505 H   0  0  0  0  0  0  0  0  0  0  0  0
   -5.3419    0.3315   -1.4886 H   0  0  0  0  0  0  0  0  0  0  0  0
   -7.0603   -0.4299   -0.3329 H   0  0  0  0  0  0  0  0  0  0  0  0
   -7.1109    1.4347    1.8648 H   0  0  0  0  0  0  0  0  0  0  0  0
   -7.2458   -0.3532    1.8569 H   0  0  0  0  0  0  0  0  0  0  0  0
   -2.9391    1.5063   -1.3917 H   0  0  0  0  0  0  0  0  0  0  0  0
   -1.5458    1.6087   -0.3705 H   0  0  0  0  0  0  0  0  0  0  0  0
   -2.3607    1.3375   -3.3451 H   0  0  0  0  0  0  0  0  0  0  0  0
   -0.6784    2.7197   -4.4015 H   0  0  0  0  0  0  0  0  0  0  0  0
    0.3969    1.3273   -4.5428 H   0  0  0  0  0  0  0  0  0  0  0  0
   -1.2607    0.2366   -6.1503 H   0  0  0  0  0  0  0  0  0  0  0  0
    0.4603    0.4979    0.0442 H   0  0  0  0  0  0  0  0  0  0  0  0
    2.2833   -0.7208    2.8858 H   0  0  0  0  0  0  0  0  0  0  0  0
    1.9130    0.6214    1.8509 H   0  0  0  0  0  0  0  0  0  0  0  0
    3.6625   -1.7275    0.9189 H   0  0  0  0  0  0  0  0  0  0  0  0
    3.3339   -0.2371    0.0381 H   0  0  0  0  0  0  0  0  0  0  0  0
    4.7491   -0.3848    2.7560 H   0  0  0  0  0  0  0  0  0  0  0  0
    6.7788   -0.5228    1.6779 H   0  0  0  0  0  0  0  0  0  0  0  0
    5.8908   -1.0344    0.2180 H   0  0  0  0  0  0  0  0  0  0  0  0
    4.6580    4.0282    1.0675 H   0  0  0  0  0  0  0  0  0  0  0  0
    6.3865    4.8104   -0.5635 H   0  0  0  0  0  0  0  0  0  0  0  0
    7.9950    3.1900   -1.5457 H   0  0  0  0  0  0  0  0  0  0  0  0
    7.9048    0.7881   -0.9107 H   0  0  0  0  0  0  0  0  0  0  0  0
    1.0147   -3.5841    3.3825 H   0  0  0  0  0  0  0  0  0  0  0  0
    2.4951   -2.8397    2.7809 H   0  0  0  0  0  0  0  0  0  0  0  0
    1.9167   -4.2952    2.0126 H   0  0  0  0  0  0  0  0  0  0  0  0
   -0.4068   -4.8849    2.0387 H   0  0  0  0  0  0  0  0  0  0  0  0
   -1.6147   -4.8043    0.8738 H   0  0  0  0  0  0  0  0  0  0  0  0
   -1.9279   -3.0319   -0.5502 H   0  0  0  0  0  0  0  0  0  0  0  0
   -2.4357   -1.9994   -2.6246 H   0  0  0  0  0  0  0  0  0  0  0  0
   -3.4525   -0.5711   -2.7234 H   0  0  0  0  0  0  0  0  0  0  0  0
   -3.5317   -1.5940   -1.2922 H   0  0  0  0  0  0  0  0  0  0  0  0
  1  2  1  0
  2  3  2  0
  3  4  1  0
  4  5  2  0
  5  6  1  0
  6  7  1  0
  7  8  1  0
  5  9  1  0
  9 10  1  0
 11 10  1  1
 11 12  1  0
 12 13  1  0
 13 14  1  0
 14 15  1  0
 15 16  1  0
 15 17  1  0
 12 18  2  0
 11 19  1  0
 19 20  2  0
 20 21  1  0
 21 22  1  0
 22 23  1  0
 23 24  1  0
 24 25  1  0
 25 26  1  0
 26 27  1  0
 27 28  1  0
 27 29  2  0
 29 30  1  0
 30 31  2  0
 31 32  1  0
 21 33  2  0
 33 34  1  0
 33 35  1  0
 35 36  1  0
 35 37  2  0
 11 38  1  0
  9 39  2  0
 39  2  1  0
  8  4  1  0
 37 19  1  0
 28 24  1  0
 32 26  2  0
  1 40  1  0
  1 41  1  0
  1 42  1  0
  6 43  1  0
  6 44  1  0
  7 45  1  0
  8 46  1  0
  8 47  1  0
 10 48  1  0
 10 49  1  0
 13 50  1  0
 14 51  1  0
 14 52  1  0
 15 53  1  0
 20 54  1  0
 22 55  1  0
 22 56  1  0
 23 57  1  0
 23 58  1  0
 24 59  1  1
 25 60  1  0
 25 61  1  0
 29 62  1  0
 30 63  1  0
 31 64  1  0
 32 65  1  0
 34 66  1  0
 34 67  1  0
 34 68  1  0
 36 69  1  0
 36 70  1  0
 37 71  1  0
 38 72  1  0
 38 73  1  0
 38 74  1  0
M  END
$$$$
