
     RDKit          3D

 70 73  0  0  0  0  0  0  0  0999 V2000
   -3.8026   -2.9038    1.7623 O   0  0  0  0  0  0  0  0  0  0  0  0
   -3.2918   -2.8130    0.6520 C   0  0  0  0  0  0  0  0  0  0  0  0
   -4.0062   -2.9809   -0.5212 N   0  0  0  0  0  0  0  0  0  0  0  0
   -5.4034   -3.4021   -0.4828 C   0  0  0  0  0  0  0  0  0  0  0  0
   -5.5800   -4.9203   -0.5006 C   0  0  0  0  0  0  0  0  0  0  0  0
   -4.9143   -5.5129    0.5192 F   0  0  0  0  0  0  0  0  0  0  0  0
   -5.0481   -5.4175   -1.6524 F   0  0  0  0  0  0  0  0  0  0  0  0
   -1.8099   -2.5928    0.4112 C   0  0  0  0  0  0  0  0  0  0  0  0
   -1.1287   -1.7676    1.4950 C   0  0  0  0  0  0  0  0  0  0  0  0
   -1.4691   -0.2905    1.4641 C   0  0  0  0  0  0  0  0  0  0  0  0
   -0.7767    0.6418    0.6541 C   0  0  0  0  0  0  0  0  0  0  0  0
    0.2660    0.2447   -0.3075 C   0  0  0  0  0  0  0  0  0  0  0  0
    1.5984    0.1705    0.1452 C   0  0  0  0  0  0  0  0  0  0  0  0
    2.6429   -0.1669   -0.7184 C   0  0  0  0  0  0  0  0  0  0  0  0
    4.0680   -0.2463   -0.2315 C   0  0  0  0  0  0  0  0  0  0  0  0
    4.5102   -1.6933   -0.0067 C   0  0  0  0  0  0  0  0  0  0  0  0
    5.9140   -1.7830    0.3491 N   0  0  0  0  0  0  0  0  0  0  0  0
    6.6315   -2.9344    0.1037 C   0  0  0  0  0  0  0  0  0  0  0  0
    8.0275   -2.9218    0.6643 C   0  0  0  0  0  0  0  0  0  0  0  0
    6.1863   -3.9007   -0.5057 O   0  0  0  0  0  0  0  0  0  0  0  0
    2.3446   -0.4511   -2.0549 C   0  0  0  0  0  0  0  0  0  0  0  0
    1.0275   -0.4486   -2.5297 C   0  0  0  0  0  0  0  0  0  0  0  0
    0.8192   -0.6363   -3.9072 N   0  0  0  0  0  0  0  0  0  0  0  0
   -0.0181   -0.0484   -1.6687 C   0  0  0  0  0  0  0  0  0  0  0  0
   -1.4198    0.0703   -2.2257 C   0  0  0  0  0  0  0  0  0  0  0  0
   -1.1166    1.9876    0.8387 C   0  0  0  0  0  0  0  0  0  0  0  0
   -2.1073    2.3414    1.7371 C   0  0  0  0  0  0  0  0  0  0  0  0
   -2.3394    3.6809    1.8492 O   0  0  0  0  0  0  0  0  0  0  0  0
   -1.2504    4.2946    1.1213 C   0  0  1  0  0  0  0  0  0  0  0  0
   -0.5519    3.2316    0.2354 C   0  0  2  0  0  0  0  0  0  0  0  0
   -0.8507    3.4376   -1.2503 C   0  0  0  0  0  0  0  0  0  0  0  0
   -0.4945    4.8490   -1.7244 C   0  0  0  0  0  0  0  0  0  0  0  0
   -0.8080    5.9487   -0.7086 C   0  0  0  0  0  0  0  0  0  0  0  0
   -1.8069    5.4853    0.3387 C   0  0  0  0  0  0  0  0  0  0  0  0
   -2.7751    1.3760    2.4424 C   0  0  0  0  0  0  0  0  0  0  0  0
   -2.4642    0.0691    2.3280 N   0  0  0  0  0  0  0  0  0  0  0  0
   -3.4861   -3.1863   -1.3654 H   0  0  0  0  0  0  0  0  0  0  0  0
   -5.8745   -2.9729   -1.3744 H   0  0  0  0  0  0  0  0  0  0  0  0
   -5.8822   -2.9820    0.4086 H   0  0  0  0  0  0  0  0  0  0  0  0
   -6.6350   -5.2048   -0.4524 H   0  0  0  0  0  0  0  0  0  0  0  0
   -1.6559   -2.1502   -0.5751 H   0  0  0  0  0  0  0  0  0  0  0  0
   -1.3530   -3.5909    0.3891 H   0  0  0  0  0  0  0  0  0  0  0  0
   -0.0422   -1.8909    1.4181 H   0  0  0  0  0  0  0  0  0  0  0  0
   -1.3910   -2.1620    2.4856 H   0  0  0  0  0  0  0  0  0  0  0  0
    1.8170    0.3946    1.1889 H   0  0  0  0  0  0  0  0  0  0  0  0
    4.7224    0.2412   -0.9670 H   0  0  0  0  0  0  0  0  0  0  0  0
    4.1879    0.3311    0.6948 H   0  0  0  0  0  0  0  0  0  0  0  0
    4.3307   -2.2994   -0.9026 H   0  0  0  0  0  0  0  0  0  0  0  0
    3.9383   -2.1485    0.8111 H   0  0  0  0  0  0  0  0  0  0  0  0
    6.2674   -1.1475    1.0537 H   0  0  0  0  0  0  0  0  0  0  0  0
    8.3673   -1.9032    0.8729 H   0  0  0  0  0  0  0  0  0  0  0  0
    8.7103   -3.3663   -0.0657 H   0  0  0  0  0  0  0  0  0  0  0  0
    8.0467   -3.5059    1.5882 H   0  0  0  0  0  0  0  0  0  0  0  0
    3.1566   -0.6891   -2.7399 H   0  0  0  0  0  0  0  0  0  0  0  0
   -0.1060   -0.9691   -4.1496 H   0  0  0  0  0  0  0  0  0  0  0  0
    1.5467   -1.1837   -4.3598 H   0  0  0  0  0  0  0  0  0  0  0  0
   -2.1571    0.3900   -1.4858 H   0  0  0  0  0  0  0  0  0  0  0  0
   -1.7561   -0.8980   -2.6102 H   0  0  0  0  0  0  0  0  0  0  0  0
   -1.4402    0.8038   -3.0384 H   0  0  0  0  0  0  0  0  0  0  0  0
   -0.5358    4.6613    1.8706 H   0  0  0  0  0  0  0  0  0  0  0  0
    0.5319    3.2838    0.4033 H   0  0  0  0  0  0  0  0  0  0  0  0
   -1.9145    3.2519   -1.4493 H   0  0  0  0  0  0  0  0  0  0  0  0
   -0.2969    2.7213   -1.8631 H   0  0  0  0  0  0  0  0  0  0  0  0
   -1.0328    5.0486   -2.6593 H   0  0  0  0  0  0  0  0  0  0  0  0
    0.5716    4.8969   -1.9876 H   0  0  0  0  0  0  0  0  0  0  0  0
    0.1211    6.2572   -0.2120 H   0  0  0  0  0  0  0  0  0  0  0  0
   -1.1883    6.8350   -1.2291 H   0  0  0  0  0  0  0  0  0  0  0  0
   -2.7559    5.2161   -0.1395 H   0  0  0  0  0  0  0  0  0  0  0  0
   -2.0480    6.3015    1.0287 H   0  0  0  0  0  0  0  0  0  0  0  0
   -3.5670    1.6193    3.1413 H   0  0  0  0  0  0  0  0  0  0  0  0
  1  2  2  0
  2  3  1  0
  3  4  1  0
  4  5  1  0
  5  6  1  0
  5  7  1  0
  2  8  1  0
  8  9  1  0
  9 10  1  0
 10 11  2  0
 11 12  1  0
 12 13  2  0
 13 14  1  0
 14 15  1  0
 15 16  1  0
 16 17  1  0
 17 18  1  0
 18 19  1  0
 18 20  2  0
 14 21  2  0
 21 22  1  0
 22 23  1  0
 22 24  2  0
 24 25  1  0
 11 26  1  0
 26 27  2  0
 27 28  1  0
 28 29  1  0
 29 30  1  0
 30 31  1  0
 31 32  1  0
 32 33  1  0
 33 34  1  0
 27 35  1  0
 35 36  2  0
 36 10  1  0
 24 12  1  0
 30 26  1  0
 34 29  1  0
  3 37  1  0
  4 38  1  0
  4 39  1  0
  5 40  1  0
  8 41  1  0
  8 42  1  0
  9 43  1  0
  9 44  1  0
 13 45  1  0
 15 46  1  0
 15 47  1  0
 16 48  1  0
 16 49  1  0
 17 50  1  0
 19 51  1  0
 19 52  1  0
 19 53  1  0
 21 54  1  0
 23 55  1  0
 23 56  1  0
 25 57  1  0
 25 58  1  0
 25 59  1  0
 29 60  1  1
 30 61  1  6
 31 62  1  0
 31 63  1  0
 32 64  1  0
 32 65  1  0
 33 66  1  0
 33 67  1  0
 34 68  1  0
 34 69  1  0
 35 70  1  0
M  END
$$$$
