
     RDKit          3D

 73 77  0  0  0  0  0  0  0  0999 V2000
   -4.5832   -1.2260    0.2443 C   0  0  0  0  0  0  0  0  0  0  0  0
   -4.0848    0.1420    0.3832 N   0  0  0  0  0  0  0  0  0  0  0  0
   -3.5621    0.6429   -0.9355 C   0  0  1  0  0  0  0  0  0  0  0  0
   -4.3821    1.8883   -1.3036 C   0  0  0  0  0  0  0  0  0  0  0  0
   -5.6540    1.7175   -0.4997 C   0  0  2  0  0  0  0  0  0  0  0  0
   -6.3346    2.9511   -0.3041 O   0  0  0  0  0  0  0  0  0  0  0  0
   -7.0283    3.0420    0.9485 C   0  0  0  0  0  0  0  0  0  0  0  0
   -7.4592    1.6890    1.5164 C   0  0  0  0  0  0  0  0  0  0  0  0
   -6.2745    0.7286    1.7108 C   0  0  0  0  0  0  0  0  0  0  0  0
   -5.1125    1.1174    0.7924 C   0  0  1  0  0  0  0  0  0  0  0  0
   -2.0601    0.9756   -0.8492 C   0  0  0  0  0  0  0  0  0  0  0  0
   -1.2488   -0.1821   -0.5229 N   0  0  0  0  0  0  0  0  0  0  0  0
   -0.8574   -1.0948   -1.4792 C   0  0  0  0  0  0  0  0  0  0  0  0
   -0.0565   -2.3106   -0.9396 C   0  0  0  0  0  0  0  0  0  0  0  0
    0.4196   -3.1779   -2.1264 C   0  0  0  0  0  0  0  0  0  0  0  0
    1.1868   -1.8468   -0.1570 C   0  0  0  0  0  0  0  0  0  0  0  0
    2.0593   -0.9041   -0.7376 C   0  0  0  0  0  0  0  0  0  0  0  0
    3.1970   -0.4090   -0.0695 C   0  0  0  0  0  0  0  0  0  0  0  0
    4.0328    0.6072   -0.7363 C   0  0  0  0  0  0  0  0  0  0  0  0
    4.6203    0.3603   -1.9848 C   0  0  0  0  0  0  0  0  0  0  0  0
    5.4064    1.2039   -2.6990 N   0  0  0  0  0  0  0  0  0  0  0  0
    4.2690    1.8631   -0.1549 C   0  0  0  0  0  0  0  0  0  0  0  0
    5.0728    2.7810   -0.8502 C   0  0  0  0  0  0  0  0  0  0  0  0
    5.5884    2.3860   -2.0833 C   0  0  0  0  0  0  0  0  0  0  0  0
    6.3388    3.3942   -2.6120 O   0  0  0  0  0  0  0  0  0  0  0  0
    6.3031    4.4265   -1.7300 C   0  0  0  0  0  0  0  0  0  0  0  0
    5.5430    4.1014   -0.6291 C   0  0  0  0  0  0  0  0  0  0  0  0
    3.4662   -0.8873    1.2332 C   0  0  0  0  0  0  0  0  0  0  0  0
    4.5937   -0.4236    1.9719 N   0  0  0  0  0  0  0  0  0  0  0  0
    5.8488   -1.1013    1.5735 C   0  0  0  0  0  0  0  0  0  0  0  0
    6.6238   -1.6397    2.7815 C   0  0  0  0  0  0  0  0  0  0  0  0
    5.8281   -2.4972    3.4851 F   0  0  0  0  0  0  0  0  0  0  0  0
    6.9477   -0.6331    3.6324 F   0  0  0  0  0  0  0  0  0  0  0  0
    2.6662   -1.9162    1.7889 C   0  0  0  0  0  0  0  0  0  0  0  0
    2.9160   -2.3933    3.0959 N   0  0  0  0  0  0  0  0  0  0  0  0
    1.5086   -2.3318    1.1189 C   0  0  0  0  0  0  0  0  0  0  0  0
   -1.0421   -3.1675   -0.1157 C   0  0  0  0  0  0  0  0  0  0  0  0
   -1.1385   -0.9540   -2.6681 O   0  0  0  0  0  0  0  0  0  0  0  0
   -5.4509   -1.2950   -0.4206 H   0  0  0  0  0  0  0  0  0  0  0  0
   -3.8002   -1.8806   -0.1521 H   0  0  0  0  0  0  0  0  0  0  0  0
   -4.8506   -1.6383    1.2224 H   0  0  0  0  0  0  0  0  0  0  0  0
   -3.7175   -0.1109   -1.7222 H   0  0  0  0  0  0  0  0  0  0  0  0
   -4.5863    1.9473   -2.3783 H   0  0  0  0  0  0  0  0  0  0  0  0
   -3.8724    2.8181   -1.0199 H   0  0  0  0  0  0  0  0  0  0  0  0
   -6.3327    1.0218   -1.0140 H   0  0  0  0  0  0  0  0  0  0  0  0
   -7.9048    3.6786    0.7904 H   0  0  0  0  0  0  0  0  0  0  0  0
   -6.3748    3.5635    1.6573 H   0  0  0  0  0  0  0  0  0  0  0  0
   -8.1621    1.2251    0.8120 H   0  0  0  0  0  0  0  0  0  0  0  0
   -7.9963    1.8212    2.4623 H   0  0  0  0  0  0  0  0  0  0  0  0
   -5.9313    0.7624    2.7513 H   0  0  0  0  0  0  0  0  0  0  0  0
   -6.6359   -0.2889    1.5377 H   0  0  0  0  0  0  0  0  0  0  0  0
   -4.5673    1.9090    1.3298 H   0  0  0  0  0  0  0  0  0  0  0  0
   -1.7114    1.3911   -1.8028 H   0  0  0  0  0  0  0  0  0  0  0  0
   -1.8709    1.7240   -0.0697 H   0  0  0  0  0  0  0  0  0  0  0  0
   -1.1366   -0.4034    0.4588 H   0  0  0  0  0  0  0  0  0  0  0  0
   -0.4304   -3.5581   -2.7066 H   0  0  0  0  0  0  0  0  0  0  0  0
    1.0516   -2.6114   -2.8215 H   0  0  0  0  0  0  0  0  0  0  0  0
    1.0006   -4.0421   -1.7798 H   0  0  0  0  0  0  0  0  0  0  0  0
    1.8286   -0.5107   -1.7297 H   0  0  0  0  0  0  0  0  0  0  0  0
    4.4663   -0.6006   -2.4761 H   0  0  0  0  0  0  0  0  0  0  0  0
    3.8482    2.1151    0.8153 H   0  0  0  0  0  0  0  0  0  0  0  0
    6.8575    5.3072   -2.0235 H   0  0  0  0  0  0  0  0  0  0  0  0
    5.3472    4.7373    0.2225 H   0  0  0  0  0  0  0  0  0  0  0  0
    4.3888   -0.5643    2.9655 H   0  0  0  0  0  0  0  0  0  0  0  0
    5.6507   -1.9436    0.8967 H   0  0  0  0  0  0  0  0  0  0  0  0
    6.4717   -0.3728    1.0400 H   0  0  0  0  0  0  0  0  0  0  0  0
    7.5369   -2.1630    2.4840 H   0  0  0  0  0  0  0  0  0  0  0  0
    3.9098   -2.4430    3.3203 H   0  0  0  0  0  0  0  0  0  0  0  0
    2.4563   -3.2747    3.3016 H   0  0  0  0  0  0  0  0  0  0  0  0
    0.8727   -3.0630    1.6093 H   0  0  0  0  0  0  0  0  0  0  0  0
   -1.9339   -3.4087   -0.7058 H   0  0  0  0  0  0  0  0  0  0  0  0
   -1.3849   -2.6508    0.7881 H   0  0  0  0  0  0  0  0  0  0  0  0
   -0.5934   -4.1194    0.1923 H   0  0  0  0  0  0  0  0  0  0  0  0
  1  2  1  0
  2  3  1  0
  3  4  1  0
  4  5  1  0
  5  6  1  0
  6  7  1  0
  7  8  1  0
  8  9  1  0
  9 10  1  0
  3 11  1  0
 11 12  1  0
 12 13  1  0
 13 14  1  0
 14 15  1  0
 14 16  1  0
 16 17  1  0
 17 18  2  0
 18 19  1  0
 19 20  1  0
 20 21  2  0
 19 22  2  0
 22 23  1  0
 23 24  2  0
 24 25  1  0
 25 26  1  0
 26 27  2  0
 18 28  1  0
 28 29  1  0
 29 30  1  0
 30 31  1  0
 31 32  1  0
 31 33  1  0
 28 34  2  0
 34 35  1  0
 34 36  1  0
 14 37  1  0
 13 38  2  0
 10  2  1  0
 10  5  1  0
 36 16  2  0
 24 21  1  0
 27 23  1  0
  1 39  1  0
  1 40  1  0
  1 41  1  0
  3 42  1  6
  4 43  1  0
  4 44  1  0
  5 45  1  6
  7 46  1  0
  7 47  1  0
  8 48  1  0
  8 49  1  0
  9 50  1  0
  9 51  1  0
 10 52  1  1
 11 53  1  0
 11 54  1  0
 12 55  1  0
 15 56  1  0
 15 57  1  0
 15 58  1  0
 17 59  1  0
 20 60  1  0
 22 61  1  0
 26 62  1  0
 27 63  1  0
 29 64  1  0
 30 65  1  0
 30 66  1  0
 31 67  1  0
 35 68  1  0
 35 69  1  0
 36 70  1  0
 37 71  1  0
 37 72  1  0
 37 73  1  0
M  END
$$$$
