
     RDKit          3D

 75 79  0  0  0  0  0  0  0  0999 V2000
    9.7604    0.5493   -1.3785 C   0  0  0  0  0  0  0  0  0  0  0  0
    8.5804    0.1602   -0.5658 C   0  0  0  0  0  0  0  0  0  0  0  0
    7.4529    0.8477   -0.3885 C   0  0  0  0  0  0  0  0  0  0  0  0
    6.6509   -0.0105    0.5055 C   0  0  0  0  0  0  0  0  0  0  0  0
    5.4037    0.3301    0.9636 N   0  0  0  0  0  0  0  0  0  0  0  0
    4.6440   -0.5225    1.8630 C   0  0  0  0  0  0  0  0  0  0  0  0
    3.5037    0.3713    2.3427 C   0  0  0  0  0  0  0  0  0  0  0  0
    3.2355    1.3014    1.1562 C   0  0  2  0  0  0  0  0  0  0  0  0
    2.4262    0.6925    0.0885 N   0  0  0  0  0  0  0  0  0  0  0  0
    1.0034    0.5712    0.4217 C   0  0  0  0  0  0  0  0  0  0  0  0
    0.2819   -0.2732   -0.6494 C   0  0  2  0  0  0  0  0  0  0  0  0
   -1.2905   -0.2457   -0.4855 C   0  0  1  0  0  0  0  0  0  0  0  0
   -2.0798    0.6904   -1.4836 C   0  0  0  0  0  0  0  0  0  0  0  0
   -1.6267    2.1576   -1.2969 C   0  0  0  0  0  0  0  0  0  0  0  0
   -3.5971    0.6403   -1.1765 C   0  0  0  0  0  0  0  0  0  0  0  0
   -4.0694    0.7783    0.1377 C   0  0  0  0  0  0  0  0  0  0  0  0
   -5.4407    0.7164    0.4653 C   0  0  0  0  0  0  0  0  0  0  0  0
   -5.8050    0.8694    1.9337 C   0  0  0  0  0  0  0  0  0  0  0  0
   -5.7281   -0.4397    2.7098 C   0  0  0  0  0  0  0  0  0  0  0  0
   -4.4891   -0.9856    2.6146 F   0  0  0  0  0  0  0  0  0  0  0  0
   -6.6062   -1.3461    2.2162 F   0  0  0  0  0  0  0  0  0  0  0  0
   -6.3990    0.5094   -0.5565 C   0  0  0  0  0  0  0  0  0  0  0  0
   -7.8840    0.4934   -0.2375 C   0  0  0  0  0  0  0  0  0  0  0  0
   -8.6441   -0.3203   -1.1348 O   0  0  0  0  0  0  0  0  0  0  0  0
   -5.9398    0.3905   -1.8850 C   0  0  0  0  0  0  0  0  0  0  0  0
   -6.8437    0.3854   -2.9717 N   0  0  0  0  0  0  0  0  0  0  0  0
   -4.5683    0.4939   -2.1758 C   0  0  0  0  0  0  0  0  0  0  0  0
   -1.7655    0.3099   -2.9569 C   0  0  0  0  0  0  0  0  0  0  0  0
   -1.7642   -1.7350   -0.5283 C   0  0  0  0  0  0  0  0  0  0  0  0
   -0.5306   -2.4772   -0.4155 N   0  0  0  0  0  0  0  0  0  0  0  0
    0.5882   -1.7168   -0.4843 C   0  0  0  0  0  0  0  0  0  0  0  0
    1.6733   -2.4395   -0.3687 N   0  0  0  0  0  0  0  0  0  0  0  0
    1.1969   -3.7305   -0.2303 C   0  0  0  0  0  0  0  0  0  0  0  0
   -0.1880   -3.7659   -0.2471 C   0  0  0  0  0  0  0  0  0  0  0  0
    4.6811    1.5547    0.6535 C   0  0  0  0  0  0  0  0  0  0  0  0
    7.2336   -1.1317    0.8500 N   0  0  0  0  0  0  0  0  0  0  0  0
    8.5425   -1.1274    0.1779 C   0  0  0  0  0  0  0  0  0  0  0  0
    9.9066   -0.1554   -2.2058 H   0  0  0  0  0  0  0  0  0  0  0  0
    9.6356    1.5452   -1.8109 H   0  0  0  0  0  0  0  0  0  0  0  0
   10.6635    0.5642   -0.7581 H   0  0  0  0  0  0  0  0  0  0  0  0
    7.1592    1.7975   -0.7906 H   0  0  0  0  0  0  0  0  0  0  0  0
    4.2608   -1.3929    1.3240 H   0  0  0  0  0  0  0  0  0  0  0  0
    5.2423   -0.8706    2.7097 H   0  0  0  0  0  0  0  0  0  0  0  0
    3.8427    0.9712    3.1967 H   0  0  0  0  0  0  0  0  0  0  0  0
    2.6399   -0.2085    2.6762 H   0  0  0  0  0  0  0  0  0  0  0  0
    2.7780    2.2478    1.4689 H   0  0  0  0  0  0  0  0  0  0  0  0
    2.7966   -0.2412   -0.1339 H   0  0  0  0  0  0  0  0  0  0  0  0
    0.5679    1.5737    0.4632 H   0  0  0  0  0  0  0  0  0  0  0  0
    0.8647    0.1120    1.4068 H   0  0  0  0  0  0  0  0  0  0  0  0
    0.5963    0.0471   -1.6438 H   0  0  0  0  0  0  0  0  0  0  0  0
   -1.4768    0.1009    0.5423 H   0  0  0  0  0  0  0  0  0  0  0  0
   -1.7383    2.4869   -0.2543 H   0  0  0  0  0  0  0  0  0  0  0  0
   -0.5762    2.2936   -1.5836 H   0  0  0  0  0  0  0  0  0  0  0  0
   -2.2189    2.8406   -1.9184 H   0  0  0  0  0  0  0  0  0  0  0  0
   -3.3627    0.9490    0.9488 H   0  0  0  0  0  0  0  0  0  0  0  0
   -6.8010    1.3116    2.0331 H   0  0  0  0  0  0  0  0  0  0  0  0
   -5.1175    1.5951    2.3882 H   0  0  0  0  0  0  0  0  0  0  0  0
   -5.9503   -0.2854    3.7686 H   0  0  0  0  0  0  0  0  0  0  0  0
   -8.0638    0.0833    0.7581 H   0  0  0  0  0  0  0  0  0  0  0  0
   -8.2715    1.5188   -0.2788 H   0  0  0  0  0  0  0  0  0  0  0  0
   -9.5685   -0.2568   -0.8264 H   0  0  0  0  0  0  0  0  0  0  0  0
   -7.7227   -0.0509   -2.6718 H   0  0  0  0  0  0  0  0  0  0  0  0
   -6.4737   -0.0750   -3.7972 H   0  0  0  0  0  0  0  0  0  0  0  0
   -4.2862    0.4545   -3.2241 H   0  0  0  0  0  0  0  0  0  0  0  0
   -2.2356    1.0058   -3.6666 H   0  0  0  0  0  0  0  0  0  0  0  0
   -0.6943    0.3496   -3.1829 H   0  0  0  0  0  0  0  0  0  0  0  0
   -2.1103   -0.7038   -3.2003 H   0  0  0  0  0  0  0  0  0  0  0  0
   -2.2519   -2.0345   -1.4609 H   0  0  0  0  0  0  0  0  0  0  0  0
   -2.3971   -1.9870    0.3318 H   0  0  0  0  0  0  0  0  0  0  0  0
    1.8775   -4.5648   -0.1243 H   0  0  0  0  0  0  0  0  0  0  0  0
   -0.8996   -4.5765   -0.1619 H   0  0  0  0  0  0  0  0  0  0  0  0
    4.7014    1.7893   -0.4158 H   0  0  0  0  0  0  0  0  0  0  0  0
    5.1292    2.3913    1.1990 H   0  0  0  0  0  0  0  0  0  0  0  0
    8.6119   -1.9826   -0.5037 H   0  0  0  0  0  0  0  0  0  0  0  0
    9.3438   -1.1888    0.9251 H   0  0  0  0  0  0  0  0  0  0  0  0
  1  2  1  0
  2  3  2  0
  3  4  1  0
  4  5  1  0
  5  6  1  0
  6  7  1  0
  7  8  1  0
  8  9  1  0
  9 10  1  0
 10 11  1  0
 11 12  1  0
 12 13  1  0
 13 14  1  0
 13 15  1  0
 15 16  2  0
 16 17  1  0
 17 18  1  0
 18 19  1  0
 19 20  1  0
 19 21  1  0
 17 22  2  0
 22 23  1  0
 23 24  1  0
 22 25  1  0
 25 26  1  0
 25 27  2  0
 13 28  1  0
 12 29  1  0
 29 30  1  0
 30 31  1  0
 31 32  2  0
 32 33  1  0
 33 34  2  0
  8 35  1  0
  4 36  2  0
 36 37  1  0
 37  2  1  0
 35  5  1  0
 31 11  1  0
 27 15  1  0
 34 30  1  0
  1 38  1  0
  1 39  1  0
  1 40  1  0
  3 41  1  0
  6 42  1  0
  6 43  1  0
  7 44  1  0
  7 45  1  0
  8 46  1  1
  9 47  1  0
 10 48  1  0
 10 49  1  0
 11 50  1  6
 12 51  1  1
 14 52  1  0
 14 53  1  0
 14 54  1  0
 16 55  1  0
 18 56  1  0
 18 57  1  0
 19 58  1  0
 23 59  1  0
 23 60  1  0
 24 61  1  0
 26 62  1  0
 26 63  1  0
 27 64  1  0
 28 65  1  0
 28 66  1  0
 28 67  1  0
 29 68  1  0
 29 69  1  0
 33 70  1  0
 34 71  1  0
 35 72  1  0
 35 73  1  0
 37 74  1  0
 37 75  1  0
M  END
$$$$
