
     RDKit          3D

 74 78  0  0  0  0  0  0  0  0999 V2000
   -6.1936    2.3951   -0.4479 C   0  0  0  0  0  0  0  0  0  0  0  0
   -5.1968    1.3405   -0.8376 C   0  0  0  0  0  0  0  0  0  0  0  0
   -5.5238   -0.0226   -0.9003 C   0  0  0  0  0  0  0  0  0  0  0  0
   -6.8446   -0.5621   -0.5031 C   0  0  0  0  0  0  0  0  0  0  0  0
   -7.2933   -0.2033    0.7464 N   0  0  0  0  0  0  0  0  0  0  0  0
   -8.5772   -0.6828    1.2412 C   0  0  0  0  0  0  0  0  0  0  0  0
   -9.7876   -0.1118    0.5059 C   0  0  0  0  0  0  0  0  0  0  0  0
  -10.9248   -0.6244    1.0470 F   0  0  0  0  0  0  0  0  0  0  0  0
   -9.8429    1.2331    0.7131 F   0  0  0  0  0  0  0  0  0  0  0  0
   -7.4571   -1.3241   -1.2398 O   0  0  0  0  0  0  0  0  0  0  0  0
   -4.5985   -0.9548   -1.3664 C   0  0  0  0  0  0  0  0  0  0  0  0
   -3.3369   -0.5068   -1.7085 C   0  0  0  0  0  0  0  0  0  0  0  0
   -2.3352   -1.4380   -2.2074 C   0  0  0  0  0  0  0  0  0  0  0  0
   -1.2485   -1.9708   -1.6227 C   0  0  0  0  0  0  0  0  0  0  0  0
   -0.6823   -1.7737   -0.3481 N   0  0  0  0  0  0  0  0  0  0  0  0
   -0.9669   -0.5444    0.4367 C   0  0  0  0  0  0  0  0  0  0  0  0
   -0.2098   -0.5031    1.7619 C   0  0  0  0  0  0  0  0  0  0  0  0
    1.2999   -0.6246    1.5500 C   0  0  0  0  0  0  0  0  0  0  0  0
    1.8160    0.6793    1.2502 O   0  0  0  0  0  0  0  0  0  0  0  0
    3.2396    0.7654    1.3746 C   0  0  0  0  0  0  0  0  0  0  0  0
    3.6711    2.1409    0.8791 C   0  0  0  0  0  0  0  0  0  0  0  0
    5.1766    2.4044    0.9826 C   0  0  0  0  0  0  0  0  0  0  0  0
    6.0035    1.7411   -0.1338 C   0  0  1  0  0  0  0  0  0  0  0  0
    7.4807    2.1838   -0.1008 C   0  0  0  0  0  0  0  0  0  0  0  0
    8.1055    0.9613    0.4501 C   0  0  0  0  0  0  0  0  0  0  0  0
    7.1813   -0.0682    0.4512 C   0  0  0  0  0  0  0  0  0  0  0  0
    5.9433    0.2982   -0.0017 O   0  0  0  0  0  0  0  0  0  0  0  0
    7.5103   -1.3446    0.8578 C   0  0  0  0  0  0  0  0  0  0  0  0
    8.8191   -1.5773    1.2860 C   0  0  0  0  0  0  0  0  0  0  0  0
    9.7629   -0.5373    1.2870 C   0  0  0  0  0  0  0  0  0  0  0  0
    9.4086    0.7459    0.8606 C   0  0  0  0  0  0  0  0  0  0  0  0
    1.6397   -1.6108    0.4259 C   0  0  0  0  0  0  0  0  0  0  0  0
    0.4790   -2.5498    0.1327 C   0  0  0  0  0  0  0  0  0  0  0  0
   -0.6325   -2.9357   -2.5933 C   0  0  0  0  0  0  0  0  0  0  0  0
   -1.4394   -2.9017   -3.7589 O   0  0  0  0  0  0  0  0  0  0  0  0
   -2.4637   -2.0405   -3.5447 C   0  0  0  0  0  0  0  0  0  0  0  0
   -3.3590   -1.8262   -4.3425 O   0  0  0  0  0  0  0  0  0  0  0  0
   -2.9706    0.7897   -1.5928 N   0  0  0  0  0  0  0  0  0  0  0  0
   -3.8850    1.6802   -1.1688 C   0  0  0  0  0  0  0  0  0  0  0  0
   -3.4275    2.9939   -1.1017 N   0  0  0  0  0  0  0  0  0  0  0  0
   -7.2099    2.1149   -0.7425 H   0  0  0  0  0  0  0  0  0  0  0  0
   -5.9915    3.3457   -0.9528 H   0  0  0  0  0  0  0  0  0  0  0  0
   -6.1648    2.5639    0.6330 H   0  0  0  0  0  0  0  0  0  0  0  0
   -6.7252    0.3778    1.3497 H   0  0  0  0  0  0  0  0  0  0  0  0
   -8.6291   -0.4106    2.2998 H   0  0  0  0  0  0  0  0  0  0  0  0
   -8.5872   -1.7762    1.1784 H   0  0  0  0  0  0  0  0  0  0  0  0
   -9.7857   -0.3034   -0.5693 H   0  0  0  0  0  0  0  0  0  0  0  0
   -4.8663   -2.0028   -1.4586 H   0  0  0  0  0  0  0  0  0  0  0  0
   -0.6983    0.3373   -0.1596 H   0  0  0  0  0  0  0  0  0  0  0  0
   -2.0357   -0.4990    0.6699 H   0  0  0  0  0  0  0  0  0  0  0  0
   -0.4510    0.4242    2.2922 H   0  0  0  0  0  0  0  0  0  0  0  0
   -0.5551   -1.3332    2.3899 H   0  0  0  0  0  0  0  0  0  0  0  0
    1.7397   -0.9648    2.4958 H   0  0  0  0  0  0  0  0  0  0  0  0
    3.7094   -0.0285    0.7968 H   0  0  0  0  0  0  0  0  0  0  0  0
    3.5100    0.6453    2.4275 H   0  0  0  0  0  0  0  0  0  0  0  0
    3.1456    2.8962    1.4775 H   0  0  0  0  0  0  0  0  0  0  0  0
    3.3224    2.2931   -0.1494 H   0  0  0  0  0  0  0  0  0  0  0  0
    5.5311    2.0768    1.9672 H   0  0  0  0  0  0  0  0  0  0  0  0
    5.3289    3.4892    0.9279 H   0  0  0  0  0  0  0  0  0  0  0  0
    5.5674    2.0080   -1.1049 H   0  0  0  0  0  0  0  0  0  0  0  0
    7.8517    2.3667   -1.1154 H   0  0  0  0  0  0  0  0  0  0  0  0
    7.6532    3.0708    0.5149 H   0  0  0  0  0  0  0  0  0  0  0  0
    6.7748   -2.1417    0.8384 H   0  0  0  0  0  0  0  0  0  0  0  0
    9.1126   -2.5721    1.6110 H   0  0  0  0  0  0  0  0  0  0  0  0
   10.7801   -0.7364    1.6127 H   0  0  0  0  0  0  0  0  0  0  0  0
   10.1431    1.5436    0.8428 H   0  0  0  0  0  0  0  0  0  0  0  0
    2.5203   -2.1962    0.7142 H   0  0  0  0  0  0  0  0  0  0  0  0
    1.9142   -1.0730   -0.4915 H   0  0  0  0  0  0  0  0  0  0  0  0
    0.8156   -3.2943   -0.5941 H   0  0  0  0  0  0  0  0  0  0  0  0
    0.1930   -3.1147    1.0285 H   0  0  0  0  0  0  0  0  0  0  0  0
   -0.6339   -3.9604   -2.2081 H   0  0  0  0  0  0  0  0  0  0  0  0
    0.3869   -2.6424   -2.8636 H   0  0  0  0  0  0  0  0  0  0  0  0
   -2.4452    2.9818   -1.3715 H   0  0  0  0  0  0  0  0  0  0  0  0
   -3.5605    3.4012   -0.1836 H   0  0  0  0  0  0  0  0  0  0  0  0
  1  2  1  0
  2  3  1  0
  3  4  1  0
  4  5  1  0
  5  6  1  0
  6  7  1  0
  7  8  1  0
  7  9  1  0
  4 10  2  0
  3 11  2  0
 11 12  1  0
 12 13  1  0
 13 14  2  0
 14 15  1  0
 15 16  1  0
 16 17  1  0
 17 18  1  0
 18 19  1  0
 19 20  1  0
 20 21  1  0
 21 22  1  0
 22 23  1  0
 23 24  1  0
 24 25  1  0
 25 26  1  0
 26 27  1  0
 26 28  2  0
 28 29  1  0
 29 30  2  0
 30 31  1  0
 18 32  1  0
 32 33  1  0
 14 34  1  0
 34 35  1  0
 35 36  1  0
 36 37  2  0
 12 38  2  0
 38 39  1  0
 39 40  1  0
 39  2  2  0
 36 13  1  0
 33 15  1  0
 27 23  1  0
 31 25  2  0
  1 41  1  0
  1 42  1  0
  1 43  1  0
  5 44  1  0
  6 45  1  0
  6 46  1  0
  7 47  1  0
 11 48  1  0
 16 49  1  0
 16 50  1  0
 17 51  1  0
 17 52  1  0
 18 53  1  0
 20 54  1  0
 20 55  1  0
 21 56  1  0
 21 57  1  0
 22 58  1  0
 22 59  1  0
 23 60  1  6
 24 61  1  0
 24 62  1  0
 28 63  1  0
 29 64  1  0
 30 65  1  0
 31 66  1  0
 32 67  1  0
 32 68  1  0
 33 69  1  0
 33 70  1  0
 34 71  1  0
 34 72  1  0
 40 73  1  0
 40 74  1  0
M  END
$$$$
