
     RDKit          3D

 77 81  0  0  0  0  0  0  0  0999 V2000
   -5.3563    1.8786   -0.6669 C   0  0  0  0  0  0  0  0  0  0  0  0
   -5.5210    0.3404   -0.6370 C   0  0  0  0  0  0  0  0  0  0  0  0
   -6.8629   -0.0276    0.1013 C   0  0  0  0  0  0  0  0  0  0  0  0
   -8.1412    0.8362   -0.0832 C   0  0  0  0  0  0  0  0  0  0  0  0
   -9.2621    0.3198    0.8451 C   0  0  0  0  0  0  0  0  0  0  0  0
   -9.8987   -0.9648    0.3198 C   0  0  0  0  0  0  0  0  0  0  0  0
  -10.3688   -0.7994   -1.0169 O   0  0  0  0  0  0  0  0  0  0  0  0
   -9.3317   -0.4262   -1.9243 C   0  0  0  0  0  0  0  0  0  0  0  0
   -8.7138    0.8992   -1.5036 C   0  0  0  0  0  0  0  0  0  0  0  0
   -4.2971   -0.3348    0.0559 C   0  0  0  0  0  0  0  0  0  0  0  0
   -2.9916    0.1673   -0.1257 C   0  0  0  0  0  0  0  0  0  0  0  0
   -1.8666   -0.4228    0.4807 C   0  0  0  0  0  0  0  0  0  0  0  0
   -0.5437    0.1855    0.2141 C   0  0  0  0  0  0  0  0  0  0  0  0
   -0.3839    1.1887   -0.5962 N   0  0  0  0  0  0  0  0  0  0  0  0
    0.9614    1.4593   -0.6223 C   0  0  0  0  0  0  0  0  0  0  0  0
    1.6645    0.4758    0.2817 C   0  0  0  0  0  0  0  0  0  0  0  0
    3.0386    0.4238    0.4646 N   0  0  0  0  0  0  0  0  0  0  0  0
    3.7426   -0.6000    1.2322 C   0  0  0  0  0  0  0  0  0  0  0  0
    5.1417   -0.6283    0.6271 C   0  0  0  0  0  0  0  0  0  0  0  0
    5.3730    0.8279    0.2254 C   0  0  2  0  0  0  0  0  0  0  0  0
    3.9912    1.2510   -0.2893 C   0  0  0  0  0  0  0  0  0  0  0  0
    6.4632    1.0175   -0.8322 C   0  0  0  0  0  0  0  0  0  0  0  0
    7.7609    0.5846   -0.3148 N   0  0  0  0  0  0  0  0  0  0  0  0
    8.7946    0.6705   -1.3498 C   0  0  0  0  0  0  0  0  0  0  0  0
   10.1520    0.2668   -0.8194 C   0  0  0  0  0  0  0  0  0  0  0  0
   11.2849    1.0476   -1.0921 C   0  0  0  0  0  0  0  0  0  0  0  0
   12.5454    0.6570   -0.6334 C   0  0  0  0  0  0  0  0  0  0  0  0
   12.6887   -0.5213    0.0975 C   0  0  0  0  0  0  0  0  0  0  0  0
   11.5748   -1.3117    0.3667 C   0  0  0  0  0  0  0  0  0  0  0  0
   10.3158   -0.9228   -0.0942 C   0  0  0  0  0  0  0  0  0  0  0  0
    0.7027   -0.2881    0.8095 C   0  0  0  0  0  0  0  0  0  0  0  0
    1.5048    2.3359   -1.2748 O   0  0  0  0  0  0  0  0  0  0  0  0
   -2.0520   -1.5565    1.2665 C   0  0  0  0  0  0  0  0  0  0  0  0
   -1.0217   -2.1624    1.8778 F   0  0  0  0  0  0  0  0  0  0  0  0
   -3.3194   -2.1355    1.4124 C   0  0  0  0  0  0  0  0  0  0  0  0
   -3.5159   -3.2182    2.2911 N   0  0  0  0  0  0  0  0  0  0  0  0
   -4.4275   -1.5000    0.8355 C   0  0  0  0  0  0  0  0  0  0  0  0
   -5.5238   -0.2083   -2.0801 C   0  0  0  0  0  0  0  0  0  0  0  0
   -4.4896    2.1977   -1.2551 H   0  0  0  0  0  0  0  0  0  0  0  0
   -5.2430    2.2750    0.3503 H   0  0  0  0  0  0  0  0  0  0  0  0
   -6.2119    2.3766   -1.1319 H   0  0  0  0  0  0  0  0  0  0  0  0
   -7.1043   -1.0745   -0.1300 H   0  0  0  0  0  0  0  0  0  0  0  0
   -6.6585   -0.0016    1.1824 H   0  0  0  0  0  0  0  0  0  0  0  0
   -7.9064    1.8574    0.2415 H   0  0  0  0  0  0  0  0  0  0  0  0
   -8.8946    0.1724    1.8673 H   0  0  0  0  0  0  0  0  0  0  0  0
  -10.0406    1.0924    0.8936 H   0  0  0  0  0  0  0  0  0  0  0  0
  -10.7598   -1.2290    0.9432 H   0  0  0  0  0  0  0  0  0  0  0  0
   -9.2021   -1.8087    0.3558 H   0  0  0  0  0  0  0  0  0  0  0  0
   -8.5885   -1.2290   -1.9839 H   0  0  0  0  0  0  0  0  0  0  0  0
   -9.7863   -0.3246   -2.9158 H   0  0  0  0  0  0  0  0  0  0  0  0
   -9.5054    1.6611   -1.5101 H   0  0  0  0  0  0  0  0  0  0  0  0
   -7.9761    1.2350   -2.2306 H   0  0  0  0  0  0  0  0  0  0  0  0
   -2.8267    1.0353   -0.7608 H   0  0  0  0  0  0  0  0  0  0  0  0
    3.7760   -0.3074    2.2874 H   0  0  0  0  0  0  0  0  0  0  0  0
    3.2738   -1.5862    1.1520 H   0  0  0  0  0  0  0  0  0  0  0  0
    5.8842   -1.0015    1.3372 H   0  0  0  0  0  0  0  0  0  0  0  0
    5.1521   -1.2838   -0.2551 H   0  0  0  0  0  0  0  0  0  0  0  0
    5.6162    1.4168    1.1235 H   0  0  0  0  0  0  0  0  0  0  0  0
    3.8305    2.3202   -0.1083 H   0  0  0  0  0  0  0  0  0  0  0  0
    3.8907    1.0489   -1.3626 H   0  0  0  0  0  0  0  0  0  0  0  0
    6.2055    0.4344   -1.7252 H   0  0  0  0  0  0  0  0  0  0  0  0
    6.5075    2.0726   -1.1253 H   0  0  0  0  0  0  0  0  0  0  0  0
    8.0398    1.1785    0.4673 H   0  0  0  0  0  0  0  0  0  0  0  0
    8.5502    0.0095   -2.1907 H   0  0  0  0  0  0  0  0  0  0  0  0
    8.8427    1.6980   -1.7334 H   0  0  0  0  0  0  0  0  0  0  0  0
   11.1953    1.9676   -1.6678 H   0  0  0  0  0  0  0  0  0  0  0  0
   13.4166    1.2701   -0.8463 H   0  0  0  0  0  0  0  0  0  0  0  0
   13.6699   -0.8253    0.4539 H   0  0  0  0  0  0  0  0  0  0  0  0
   11.6822   -2.2303    0.9360 H   0  0  0  0  0  0  0  0  0  0  0  0
    9.4517   -1.5500    0.1203 H   0  0  0  0  0  0  0  0  0  0  0  0
    0.8361   -1.0958    1.5029 H   0  0  0  0  0  0  0  0  0  0  0  0
   -2.6667   -3.7567    2.4557 H   0  0  0  0  0  0  0  0  0  0  0  0
   -4.3129   -3.8037    2.0611 H   0  0  0  0  0  0  0  0  0  0  0  0
   -5.4038   -1.9466    1.0067 H   0  0  0  0  0  0  0  0  0  0  0  0
   -6.2245    0.3137   -2.7302 H   0  0  0  0  0  0  0  0  0  0  0  0
   -5.7813   -1.2712   -2.0920 H   0  0  0  0  0  0  0  0  0  0  0  0
   -4.5391   -0.1119   -2.5519 H   0  0  0  0  0  0  0  0  0  0  0  0
  1  2  1  0
  2  3  1  0
  3  4  1  0
  4  5  1  0
  5  6  1  0
  6  7  1  0
  7  8  1  0
  8  9  1  0
  2 10  1  0
 10 11  1  0
 11 12  2  0
 12 13  1  0
 13 14  2  0
 14 15  1  0
 15 16  1  0
 16 17  1  0
 17 18  1  0
 18 19  1  0
 19 20  1  0
 20 21  1  0
 20 22  1  0
 22 23  1  0
 23 24  1  0
 24 25  1  0
 25 26  2  0
 26 27  1  0
 27 28  2  0
 28 29  1  0
 29 30  2  0
 16 31  2  0
 15 32  2  0
 12 33  1  0
 33 34  1  0
 33 35  2  0
 35 36  1  0
 35 37  1  0
  2 38  1  0
  9  4  1  0
 37 10  2  0
 31 13  1  0
 21 17  1  0
 30 25  1  0
  1 39  1  0
  1 40  1  0
  1 41  1  0
  3 42  1  0
  3 43  1  0
  4 44  1  0
  5 45  1  0
  5 46  1  0
  6 47  1  0
  6 48  1  0
  8 49  1  0
  8 50  1  0
  9 51  1  0
  9 52  1  0
 11 53  1  0
 18 54  1  0
 18 55  1  0
 19 56  1  0
 19 57  1  0
 20 58  1  1
 21 59  1  0
 21 60  1  0
 22 61  1  0
 22 62  1  0
 23 63  1  0
 24 64  1  0
 24 65  1  0
 26 66  1  0
 27 67  1  0
 28 68  1  0
 29 69  1  0
 30 70  1  0
 31 71  1  0
 36 72  1  0
 36 73  1  0
 37 74  1  0
 38 75  1  0
 38 76  1  0
 38 77  1  0
M  END
$$$$
